data_PIM-1
_audit_creation_date              2020-01-09
_audit_creation_method            'Materials Studio'
_symmetry_space_group_name_H-M    'P1'
_symmetry_Int_Tables_number       1
_symmetry_cell_setting            triclinic
loop_
_symmetry_equiv_pos_as_xyz
  x,y,z
_cell_length_a                    49.0326
_cell_length_b                    49.0326
_cell_length_c                    49.0326
_cell_angle_alpha                 90.0000
_cell_angle_beta                  90.0000
_cell_angle_gamma                 90.0000
loop_
_atom_site_label
_atom_site_type_symbol
_atom_site_fract_x
_atom_site_fract_y
_atom_site_fract_z
_atom_site_U_iso_or_equiv
_atom_site_adp_type
_atom_site_occupancy
H1     H     0.53128   0.39452   0.40409   0.00000  Uiso   1.00
O2     O     0.38782   0.21414   0.39919   0.00000  Uiso   1.00
C3     C     0.27708   0.21506   0.33111   0.00000  Uiso   1.00
C4     C     0.41355   0.22838   0.29049   0.00000  Uiso   1.00
H5     H     0.29213   0.40427   0.28781   0.00000  Uiso   1.00
H6     H     0.39420   0.35326   0.30581   0.00000  Uiso   1.00
H7     H     0.52877   0.44250   0.28083   0.00000  Uiso   1.00
H8     H     0.35514   0.32888   0.35189   0.00000  Uiso   1.00
C9     C     0.35005   0.38675   0.28716   0.00000  Uiso   1.00
H10    H     0.32151   0.42864   0.24430   0.00000  Uiso   1.00
H11    H     0.39814   0.38758   0.31132   0.00000  Uiso   1.00
H12    H     0.49060   0.43452   0.33953   0.00000  Uiso   1.00
H13    H     0.47578   0.40469   0.22074   0.00000  Uiso   1.00
C14    C     0.37837   0.24802   0.44555   0.00000  Uiso   1.00
C15    C     0.29358   0.25917   0.31705   0.00000  Uiso   1.00
H16    H     0.34896   0.38816   0.35866   0.00000  Uiso   1.00
C17    C     0.32841   0.36521   0.24454   0.00000  Uiso   1.00
C18    C     0.50432   0.45109   0.23458   0.00000  Uiso   1.00
C19    C     0.32267   0.34863   0.29422   0.00000  Uiso   1.00
H20    H     0.39072   0.36575   0.34284   0.00000  Uiso   1.00
C21    C     0.38800   0.21765   0.35136   0.00000  Uiso   1.00
H22    H     0.24924   0.40052   0.25551   0.00000  Uiso   1.00
C23    C     0.30638   0.30362   0.30776   0.00000  Uiso   1.00
H24    H     0.51902   0.44398   0.21894   0.00000  Uiso   1.00
C25    C     0.32649   0.23969   0.38182   0.00000  Uiso   1.00
C26    C     0.33964   0.32769   0.33436   0.00000  Uiso   1.00
H27    H     0.35052   0.40897   0.28705   0.00000  Uiso   1.00
N28    N     0.33684   0.24160   0.40238   0.00000  Uiso   1.00
O29    O     0.36149   0.45382   0.22124   0.00000  Uiso   1.00
C30    C     0.38735   0.36929   0.32003   0.00000  Uiso   1.00
C31    C     0.27507   0.23727   0.31401   0.00000  Uiso   1.00
C32    C     0.53017   0.43894   0.39416   0.00000  Uiso   1.00
C33    C     0.35676   0.37520   0.31588   0.00000  Uiso   1.00
C34    C     0.32313   0.30595   0.33043   0.00000  Uiso   1.00
H35    H     0.32924   0.40860   0.33281   0.00000  Uiso   1.00
C36    C     0.50140   0.42415   0.35540   0.00000  Uiso   1.00
C37    C     0.34016   0.35001   0.31635   0.00000  Uiso   1.00
H38    H     0.35725   0.33245   0.24670   0.00000  Uiso   1.00
C39    C     0.53883   0.45861   0.26969   0.00000  Uiso   1.00
H40    H     0.25774   0.36989   0.23983   0.00000  Uiso   1.00
H41    H     0.39796   0.23951   0.35144   0.00000  Uiso   1.00
H42    H     0.50748   0.40356   0.34850   0.00000  Uiso   1.00
C43    C     0.30855   0.37779   0.22839   0.00000  Uiso   1.00
C44    C     0.22587   0.23654   0.42308   0.00000  Uiso   1.00
H45    H     0.36493   0.41331   0.33796   0.00000  Uiso   1.00
H46    H     0.44871   0.45522   0.43430   0.00000  Uiso   1.00
C47    C     0.35994   0.24000   0.29360   0.00000  Uiso   1.00
O48    O     0.53433   0.39486   0.45343   0.00000  Uiso   1.00
C49    C     0.29752   0.38833   0.27392   0.00000  Uiso   1.00
C50    C     0.25407   0.23854   0.29422   0.00000  Uiso   1.00
H51    H     0.35944   0.24934   0.27141   0.00000  Uiso   1.00
N52    N     0.38251   0.27141   0.44470   0.00000  Uiso   1.00
C53    C     0.34803   0.39714   0.33801   0.00000  Uiso   1.00
C54    C     0.30939   0.26078   0.34120   0.00000  Uiso   1.00
H55    H     0.33884   0.23177   0.29935   0.00000  Uiso   1.00
H56    H     0.23438   0.24996   0.40810   0.00000  Uiso   1.00
H57    H     0.42458   0.24134   0.30491   0.00000  Uiso   1.00
H58    H     0.36239   0.25645   0.30907   0.00000  Uiso   1.00
C59    C     0.32523   0.37293   0.27515   0.00000  Uiso   1.00
H60    H     0.41281   0.24054   0.27069   0.00000  Uiso   1.00
C61    C     0.52624   0.44094   0.36354   0.00000  Uiso   1.00
H62    H     0.28626   0.25568   0.42705   0.00000  Uiso   1.00
O63    O     0.29040   0.28199   0.30112   0.00000  Uiso   1.00
C64    C     0.30676   0.32577   0.28979   0.00000  Uiso   1.00
C65    C     0.29891   0.42644   0.24020   0.00000  Uiso   1.00
C66    C     0.26130   0.39165   0.23927   0.00000  Uiso   1.00
C67    C     0.31269   0.23832   0.35825   0.00000  Uiso   1.00
H68    H     0.36827   0.37863   0.27354   0.00000  Uiso   1.00
H69    H     0.49792   0.43389   0.24707   0.00000  Uiso   1.00
H70    H     0.28646   0.44019   0.25250   0.00000  Uiso   1.00
C71    C     0.53190   0.41622   0.41058   0.00000  Uiso   1.00
O72    O     0.32427   0.28445   0.34848   0.00000  Uiso   1.00
H73    H     0.28211   0.37398   0.28002   0.00000  Uiso   1.00
C74    C     0.29648   0.21528   0.35235   0.00000  Uiso   1.00
C75    C     0.29083   0.39659   0.24508   0.00000  Uiso   1.00
H76    H     0.29102   0.32688   0.27257   0.00000  Uiso   1.00
H77    H     0.48542   0.42093   0.37107   0.00000  Uiso   1.00
C78    C     0.38467   0.21812   0.29745   0.00000  Uiso   1.00
N79    N     0.23601   0.24051   0.27884   0.00000  Uiso   1.00
C80    C     0.53537   0.44520   0.44963   0.00000  Uiso   1.00
C81    C     0.53359   0.41878   0.43890   0.00000  Uiso   1.00
H82    H     0.30902   0.24497   0.45445   0.00000  Uiso   1.00
C83    C     0.27117   0.22002   0.44445   0.00000  Uiso   1.00
H84    H     0.25616   0.39985   0.21976   0.00000  Uiso   1.00
C85    C     0.34446   0.34418   0.23357   0.00000  Uiso   1.00
C86    C     0.37386   0.21889   0.44611   0.00000  Uiso   1.00
H87    H     0.29762   0.43090   0.21757   0.00000  Uiso   1.00
H88    H     0.41418   0.44525   0.42855   0.00000  Uiso   1.00
C89    C     0.24097   0.22093   0.44195   0.00000  Uiso   1.00
C90    C     0.28619   0.24654   0.44733   0.00000  Uiso   1.00
C91    C     0.42842   0.46196   0.43090   0.00000  Uiso   1.00
H92    H     0.48549   0.45614   0.22296   0.00000  Uiso   1.00
H93    H     0.28042   0.21974   0.39986   0.00000  Uiso   1.00
H94    H     0.27528   0.25860   0.46206   0.00000  Uiso   1.00
C95    C     0.31363   0.22203   0.58319   0.00000  Uiso   1.00
C96    C     0.28771   0.23896   0.57738   0.00000  Uiso   1.00
H97    H     0.33286   0.26286   0.58936   0.00000  Uiso   1.00
H98    H     0.33372   0.24438   0.53541   0.00000  Uiso   1.00
H99    H     0.48581   0.23027   0.50300   0.00000  Uiso   1.00
O100   O     0.36068   0.22282   0.49249   0.00000  Uiso   1.00
H101   H     0.29447   0.25861   0.56963   0.00000  Uiso   1.00
C102   C     0.53020   0.37585   0.49878   0.00000  Uiso   1.00
C103   C     0.52938   0.34842   0.48874   0.00000  Uiso   1.00
H104   H     0.52190   0.23452   0.50042   0.00000  Uiso   1.00
H105   H     0.50367   0.23567   0.53489   0.00000  Uiso   1.00
N106   N     0.52928   0.32669   0.48107   0.00000  Uiso   1.00
H107   H     0.32067   0.24572   0.61970   0.00000  Uiso   1.00
H108   H     0.35254   0.23571   0.60366   0.00000  Uiso   1.00
C109   C     0.50435   0.22649   0.51399   0.00000  Uiso   1.00
C110   C     0.33106   0.24241   0.60044   0.00000  Uiso   1.00
C111   C     0.23230   0.22101   0.69184   0.00000  Uiso   1.00
C112   C     0.33774   0.22308   0.53594   0.00000  Uiso   1.00
O113   O     0.22277   0.22786   0.66645   0.00000  Uiso   1.00
H114   H     0.27782   0.24323   0.59544   0.00000  Uiso   1.00
C115   C     0.23808   0.24252   0.71024   0.00000  Uiso   1.00
C116   C     0.52813   0.37685   0.52682   0.00000  Uiso   1.00
O117   O     0.53633   0.44921   0.47721   0.00000  Uiso   1.00
C118   C     0.41723   0.46236   0.48120   0.00000  Uiso   1.00
C119   C     0.53348   0.39824   0.48123   0.00000  Uiso   1.00
C120   C     0.22244   0.21678   0.61901   0.00000  Uiso   1.00
C121   C     0.53375   0.42507   0.49339   0.00000  Uiso   1.00
F122   F     0.51973   0.35391   0.54101   0.00000  Uiso   1.00
C123   C     0.53129   0.42668   0.52176   0.00000  Uiso   1.00
C124   C     0.52865   0.45219   0.53373   0.00000  Uiso   1.00
H125   H     0.22528   0.21749   0.51837   0.00000  Uiso   1.00
C126   C     0.52746   0.40289   0.53860   0.00000  Uiso   1.00
H127   H     0.52763   0.46204   0.64693   0.00000  Uiso   1.00
H128   H     0.28008   0.21711   0.48810   0.00000  Uiso   1.00
F129   F     0.52078   0.40653   0.56409   0.00000  Uiso   1.00
H130   H     0.27402   0.22999   0.56171   0.00000  Uiso   1.00
H131   H     0.43819   0.45237   0.48517   0.00000  Uiso   1.00
H132   H     0.23742   0.26384   0.70362   0.00000  Uiso   1.00
H133   H     0.40498   0.44352   0.47705   0.00000  Uiso   1.00
H134   H     0.49184   0.46287   0.64562   0.00000  Uiso   1.00
C135   C     0.28365   0.28258   0.94745   0.00000  Uiso   1.00
H136   H     0.48831   0.32312   0.90101   0.00000  Uiso   1.00
H137   H     0.49153   0.35796   0.89094   0.00000  Uiso   1.00
C138   C     0.37171   0.35733   0.91444   0.00000  Uiso   1.00
H139   H     0.46679   0.39253   0.84244   0.00000  Uiso   1.00
C140   C     0.35021   0.46199   0.94539   0.00000  Uiso   1.00
H141   H     0.44462   0.27625   0.84076   0.00000  Uiso   1.00
H142   H     0.33178   0.35173   0.89324   0.00000  Uiso   1.00
H143   H     0.26925   0.26628   0.94024   0.00000  Uiso   1.00
C144   C     0.53207   0.31669   0.87514   0.00000  Uiso   1.00
H145   H     0.36223   0.27662   0.95944   0.00000  Uiso   1.00
C146   C     0.24372   0.28151   0.76063   0.00000  Uiso   1.00
C147   C     0.31382   0.27807   0.90844   0.00000  Uiso   1.00
C148   C     0.33872   0.28842   0.90276   0.00000  Uiso   1.00
H149   H     0.29960   0.27363   0.96050   0.00000  Uiso   1.00
H150   H     0.50148   0.44345   0.88893   0.00000  Uiso   1.00
H151   H     0.22702   0.42956   0.86565   0.00000  Uiso   1.00
C152   C     0.26291   0.23628   0.78249   0.00000  Uiso   1.00
C153   C     0.49743   0.30329   0.84560   0.00000  Uiso   1.00
H154   H     0.54484   0.43391   0.83330   0.00000  Uiso   1.00
H155   H     0.46589   0.33096   0.87630   0.00000  Uiso   1.00
H156   H     0.37753   0.28356   0.88119   0.00000  Uiso   1.00
C157   C     0.25920   0.25431   0.75792   0.00000  Uiso   1.00
H158   H     0.40770   0.43186   0.84294   0.00000  Uiso   1.00
C159   C     0.53328   0.24757   0.82655   0.00000  Uiso   1.00
C160   C     0.27862   0.31581   0.90596   0.00000  Uiso   1.00
H161   H     0.46506   0.38649   0.87867   0.00000  Uiso   1.00
C162   C     0.41559   0.45701   0.80634   0.00000  Uiso   1.00
H163   H     0.34602   0.36990   0.95056   0.00000  Uiso   1.00
H164   H     0.46049   0.43666   0.91182   0.00000  Uiso   1.00
H165   H     0.24575   0.29120   0.78210   0.00000  Uiso   1.00
H166   H     0.29306   0.32732   0.89334   0.00000  Uiso   1.00
C167   C     0.45874   0.22555   0.88482   0.00000  Uiso   1.00
H168   H     0.39457   0.35850   0.87679   0.00000  Uiso   1.00
H169   H     0.22249   0.27850   0.75673   0.00000  Uiso   1.00
N170   N     0.40691   0.21437   0.79923   0.00000  Uiso   1.00
H171   H     0.53665   0.31182   0.79736   0.00000  Uiso   1.00
C172   C     0.29677   0.29932   0.92528   0.00000  Uiso   1.00
C173   C     0.51131   0.25446   0.84226   0.00000  Uiso   1.00
C174   C     0.45709   0.39934   0.86246   0.00000  Uiso   1.00
C175   C     0.38655   0.33591   0.93015   0.00000  Uiso   1.00
H176   H     0.50740   0.30267   0.82425   0.00000  Uiso   1.00
H177   H     0.27688   0.44654   0.75661   0.00000  Uiso   1.00
C178   C     0.34924   0.33923   0.89984   0.00000  Uiso   1.00
C179   C     0.42303   0.44213   0.82968   0.00000  Uiso   1.00
C180   C     0.38939   0.37116   0.89317   0.00000  Uiso   1.00
H181   H     0.36871   0.22848   0.94929   0.00000  Uiso   1.00
H182   H     0.25000   0.29801   0.74601   0.00000  Uiso   1.00
C183   C     0.49164   0.43815   0.86800   0.00000  Uiso   1.00
C184   C     0.53244   0.28816   0.87603   0.00000  Uiso   1.00
H185   H     0.30226   0.24556   0.74811   0.00000  Uiso   1.00
H186   H     0.42751   0.24652   0.84670   0.00000  Uiso   1.00
H187   H     0.26697   0.33094   0.91628   0.00000  Uiso   1.00
C188   C     0.48797   0.23834   0.84413   0.00000  Uiso   1.00
C189   C     0.50160   0.29336   0.95393   0.00000  Uiso   1.00
H190   H     0.32315   0.31377   0.95890   0.00000  Uiso   1.00
H191   H     0.37628   0.38643   0.88341   0.00000  Uiso   1.00
C192   C     0.44281   0.26084   0.85610   0.00000  Uiso   1.00
C193   C     0.50664   0.27861   0.86156   0.00000  Uiso   1.00
C194   C     0.48606   0.26666   0.88111   0.00000  Uiso   1.00
H195   H     0.53830   0.30875   0.76118   0.00000  Uiso   1.00
H196   H     0.24758   0.24336   0.79650   0.00000  Uiso   1.00
C197   C     0.51678   0.35282   0.84337   0.00000  Uiso   1.00
C198   C     0.36835   0.31523   0.93581   0.00000  Uiso   1.00
H199   H     0.40886   0.37990   0.90153   0.00000  Uiso   1.00
C200   C     0.31776   0.31823   0.93795   0.00000  Uiso   1.00
O201   O     0.36703   0.23402   0.86048   0.00000  Uiso   1.00
C202   C     0.24731   0.23606   0.73647   0.00000  Uiso   1.00
C203   C     0.48640   0.33640   0.88363   0.00000  Uiso   1.00
C204   C     0.34960   0.24815   0.87745   0.00000  Uiso   1.00
H205   H     0.47381   0.28340   0.88747   0.00000  Uiso   1.00
C206   C     0.34281   0.31583   0.91894   0.00000  Uiso   1.00
H207   H     0.50463   0.42138   0.86106   0.00000  Uiso   1.00
H208   H     0.42642   0.42961   0.89722   0.00000  Uiso   1.00
H209   H     0.35642   0.33105   0.88064   0.00000  Uiso   1.00
C210   C     0.53069   0.22586   0.80842   0.00000  Uiso   1.00
H211   H     0.49843   0.36364   0.83520   0.00000  Uiso   1.00
C212   C     0.54360   0.45458   0.82715   0.00000  Uiso   1.00
N213   N     0.51719   0.30873   0.94555   0.00000  Uiso   1.00
H214   H     0.47524   0.30380   0.84150   0.00000  Uiso   1.00
H215   H     0.29725   0.27654   0.76385   0.00000  Uiso   1.00
H216   H     0.47579   0.21528   0.89522   0.00000  Uiso   1.00
C217   C     0.46975   0.45612   0.82672   0.00000  Uiso   1.00
H218   H     0.28804   0.27232   0.72951   0.00000  Uiso   1.00
H219   H     0.37446   0.38708   0.94867   0.00000  Uiso   1.00
C220   C     0.35894   0.37817   0.93481   0.00000  Uiso   1.00
H221   H     0.23042   0.41413   0.82119   0.00000  Uiso   1.00
C222   C     0.28879   0.26200   0.74883   0.00000  Uiso   1.00
H223   H     0.43143   0.27232   0.87346   0.00000  Uiso   1.00
H224   H     0.28727   0.24091   0.90535   0.00000  Uiso   1.00
C225   C     0.46162   0.42948   0.86653   0.00000  Uiso   1.00
N226   N     0.49984   0.40267   0.95767   0.00000  Uiso   1.00
H227   H     0.34503   0.44024   0.94818   0.00000  Uiso   1.00
C228   C     0.44952   0.44145   0.83987   0.00000  Uiso   1.00
C229   C     0.41232   0.33509   0.94139   0.00000  Uiso   1.00
H230   H     0.42894   0.34911   0.93770   0.00000  Uiso   1.00
O231   O     0.39043   0.45906   0.79687   0.00000  Uiso   1.00
C232   C     0.30736   0.25122   0.90116   0.00000  Uiso   1.00
C233   C     0.46852   0.24756   0.86636   0.00000  Uiso   1.00
H234   H     0.26508   0.30120   0.89566   0.00000  Uiso   1.00
C235   C     0.50746   0.32843   0.86180   0.00000  Uiso   1.00
H236   H     0.34816   0.39397   0.92417   0.00000  Uiso   1.00
H237   H     0.25207   0.44683   0.80062   0.00000  Uiso   1.00
C238   C     0.35738   0.27352   0.88810   0.00000  Uiso   1.00
H239   H     0.49812   0.26103   0.89965   0.00000  Uiso   1.00
H240   H     0.43550   0.39494   0.86211   0.00000  Uiso   1.00
C241   C     0.44633   0.43909   0.89342   0.00000  Uiso   1.00
H242   H     0.52919   0.36874   0.85381   0.00000  Uiso   1.00
H243   H     0.41068   0.44707   0.95923   0.00000  Uiso   1.00
N244   N     0.37661   0.45032   0.87440   0.00000  Uiso   1.00
H245   H     0.28316   0.23951   0.79264   0.00000  Uiso   1.00
H246   H     0.52866   0.34602   0.82548   0.00000  Uiso   1.00
H247   H     0.31019   0.34013   0.93689   0.00000  Uiso   1.00
N248   N     0.23281   0.23222   0.90541   0.00000  Uiso   1.00
C249   C     0.32555   0.23570   0.88609   0.00000  Uiso   1.00
H250   H     0.27161   0.29550   0.96191   0.00000  Uiso   1.00
C251   C     0.21890   0.45202   0.71934   0.00000  Uiso   1.00
O252   O     0.51479   0.23945   0.95645   0.00000  Uiso   1.00
C253   C     0.42044   0.31315   0.95622   0.00000  Uiso   1.00
C254   C     0.22078   0.45194   0.74752   0.00000  Uiso   1.00
C255   C     0.37595   0.29377   0.95312   0.00000  Uiso   1.00
H256   H     0.44297   0.23281   0.89823   0.00000  Uiso   1.00
C257   C     0.49406   0.46236   0.84734   0.00000  Uiso   1.00
C258   C     0.23552   0.46049   0.79428   0.00000  Uiso   1.00
H259   H     0.40141   0.21861   0.95796   0.00000  Uiso   1.00
H260   H     0.44234   0.46120   0.89128   0.00000  Uiso   1.00
O261   O     0.44850   0.30908   0.96061   0.00000  Uiso   1.00
C262   C     0.48362   0.21860   0.82407   0.00000  Uiso   1.00
N263   N     0.42274   0.34135   1.08364   0.00000  Uiso   1.00
C264   C     0.48651   0.38528   1.15258   0.00000  Uiso   1.00
C265   C     0.47257   0.37856   0.99542   0.00000  Uiso   1.00
N266   N     0.25873   0.44558   0.98634   0.00000  Uiso   1.00
C267   C     0.23320   0.38205   1.08152   0.00000  Uiso   1.00
C268   C     0.29579   0.44032   1.08639   0.00000  Uiso   1.00
C269   C     0.25489   0.40154   1.08195   0.00000  Uiso   1.00
O270   O     0.25015   0.38158   0.96828   0.00000  Uiso   1.00
C271   C     0.33504   0.32046   1.04177   0.00000  Uiso   1.00
O272   O     0.39442   0.27740   1.04731   0.00000  Uiso   1.00
N273   N     0.27138   0.42178   1.17485   0.00000  Uiso   1.00
H274   H     0.32360   0.34979   1.00012   0.00000  Uiso   1.00
C275   C     0.34607   0.30133   1.17439   0.00000  Uiso   1.00
C276   C     0.42406   0.40117   1.16030   0.00000  Uiso   1.00
H277   H     0.35939   0.36839   1.06343   0.00000  Uiso   1.00
C278   C     0.23987   0.43250   0.97873   0.00000  Uiso   1.00
C279   C     0.54229   0.30973   1.01050   0.00000  Uiso   1.00
C280   C     0.53518   0.23040   1.07315   0.00000  Uiso   1.00
O281   O     0.47338   0.32027   1.04231   0.00000  Uiso   1.00
C282   C     0.30055   0.22438   1.08327   0.00000  Uiso   1.00
C283   C     0.48871   0.24738   0.96562   0.00000  Uiso   1.00
C284   C     0.26953   0.34687   0.99629   0.00000  Uiso   1.00
C285   C     0.38718   0.39037   1.12773   0.00000  Uiso   1.00
H286   H     0.26857   0.25518   1.01214   0.00000  Uiso   1.00
C287   C     0.41228   0.42093   0.99385   0.00000  Uiso   1.00
H288   H     0.33856   0.35169   1.08789   0.00000  Uiso   1.00
H289   H     0.30419   0.26086   1.02731   0.00000  Uiso   1.00
C290   C     0.22671   0.31081   0.99020   0.00000  Uiso   1.00
C291   C     0.54348   0.22466   1.17105   0.00000  Uiso   1.00
H292   H     0.27663   0.28216   1.06461   0.00000  Uiso   1.00
C293   C     0.28741   0.43151   1.06112   0.00000  Uiso   1.00
C294   C     0.34269   0.26181   1.14416   0.00000  Uiso   1.00
N295   N     0.27147   0.32137   1.10924   0.00000  Uiso   1.00
H296   H     0.36743   0.42430   1.04830   0.00000  Uiso   1.00
H297   H     0.28395   0.36288   0.99913   0.00000  Uiso   1.00
H298   H     0.49987   0.45122   1.16967   0.00000  Uiso   1.00
C299   C     0.50638   0.28502   1.04665   0.00000  Uiso   1.00
C300   C     0.37660   0.45456   0.98552   0.00000  Uiso   1.00
H301   H     0.25198   0.24473   1.04269   0.00000  Uiso   1.00
C302   C     0.46974   0.22690   0.97371   0.00000  Uiso   1.00
C303   C     0.39554   0.41069   1.17046   0.00000  Uiso   1.00
C304   C     0.26655   0.29816   1.05358   0.00000  Uiso   1.00
C305   C     0.37584   0.23118   1.04894   0.00000  Uiso   1.00
H306   H     0.37074   0.35454   1.14893   0.00000  Uiso   1.00
O307   O     0.23257   0.36363   1.15412   0.00000  Uiso   1.00
C308   C     0.36566   0.43795   1.19770   0.00000  Uiso   1.00
C309   C     0.44827   0.39007   1.00357   0.00000  Uiso   1.00
C310   C     0.36178   0.31226   1.04395   0.00000  Uiso   1.00
C311   C     0.44611   0.35988   1.04181   0.00000  Uiso   1.00
O312   O     0.40924   0.27119   0.98128   0.00000  Uiso   1.00
H313   H     0.21657   0.27655   1.06311   0.00000  Uiso   1.00
C314   C     0.43312   0.34950   1.06435   0.00000  Uiso   1.00
C315   C     0.48793   0.39111   0.97477   0.00000  Uiso   1.00
C316   C     0.23911   0.37588   1.13011   0.00000  Uiso   1.00
C317   C     0.29511   0.34344   1.05248   0.00000  Uiso   1.00
H318   H     0.28974   0.37719   1.18991   0.00000  Uiso   1.00
C319   C     0.51662   0.32305   1.01659   0.00000  Uiso   1.00
C320   C     0.21660   0.28772   1.04395   0.00000  Uiso   1.00
H321   H     0.38966   0.38895   1.08408   0.00000  Uiso   1.00
C322   C     0.32396   0.27545   1.12684   0.00000  Uiso   1.00
C323   C     0.49887   0.30988   1.03620   0.00000  Uiso   1.00
H324   H     0.47544   0.38668   1.13238   0.00000  Uiso   1.00
C325   C     0.36907   0.28463   1.03996   0.00000  Uiso   1.00
C326   C     0.32952   0.36335   1.01865   0.00000  Uiso   1.00
C327   C     0.30673   0.36901   1.20235   0.00000  Uiso   1.00
C328   C     0.39920   0.41199   1.01824   0.00000  Uiso   1.00
C329   C     0.24938   0.35439   0.97863   0.00000  Uiso   1.00
O330   O     0.31773   0.26606   1.10083   0.00000  Uiso   1.00
C331   C     0.43654   0.26349   0.97831   0.00000  Uiso   1.00
C332   C     0.44291   0.38710   1.18016   0.00000  Uiso   1.00
C333   C     0.46816   0.34621   1.03181   0.00000  Uiso   1.00
N334   N     0.38789   0.24825   1.19643   0.00000  Uiso   1.00
H335   H     0.23102   0.25036   1.01163   0.00000  Uiso   1.00
H336   H     0.28938   0.23511   1.06628   0.00000  Uiso   1.00
O337   O     0.42500   0.22083   1.11492   0.00000  Uiso   1.00
C338   C     0.26803   0.32371   1.01253   0.00000  Uiso   1.00
N339   N     0.45332   0.27685   1.08749   0.00000  Uiso   1.00
C340   C     0.48735   0.39730   1.20307   0.00000  Uiso   1.00
H341   H     0.43224   0.38550   1.11729   0.00000  Uiso   1.00
H342   H     0.29404   0.33925   1.07409   0.00000  Uiso   1.00
C343   C     0.32383   0.34844   1.04602   0.00000  Uiso   1.00
H344   H     0.50859   0.40618   1.20456   0.00000  Uiso   1.00
C345   C     0.33729   0.36448   1.06994   0.00000  Uiso   1.00
C346   C     0.43552   0.26267   1.08167   0.00000  Uiso   1.00
C347   C     0.43458   0.38162   1.02641   0.00000  Uiso   1.00
C348   C     0.32579   0.31417   1.15748   0.00000  Uiso   1.00
H349   H     0.44475   0.36379   1.17868   0.00000  Uiso   1.00
H350   H     0.41656   0.36201   1.14275   0.00000  Uiso   1.00
O351   O     0.28368   0.43081   1.10905   0.00000  Uiso   1.00
H352   H     0.36176   0.40780   1.09695   0.00000  Uiso   1.00
C353   C     0.34725   0.26490   1.03320   0.00000  Uiso   1.00
C354   C     0.36879   0.36487   1.12950   0.00000  Uiso   1.00
C355   C     0.34189   0.33573   1.20615   0.00000  Uiso   1.00
H356   H     0.32702   0.38329   1.07537   0.00000  Uiso   1.00
C357   C     0.31367   0.30302   1.03633   0.00000  Uiso   1.00
C358   C     0.37723   0.42775   1.02676   0.00000  Uiso   1.00
H359   H     0.35133   0.36779   1.01643   0.00000  Uiso   1.00
C360   C     0.38352   0.40420   1.09985   0.00000  Uiso   1.00
C361   C     0.26475   0.41034   1.15481   0.00000  Uiso   1.00
H362   H     0.50778   0.39056   1.15036   0.00000  Uiso   1.00
H363   H     0.39534   0.42178   1.09399   0.00000  Uiso   1.00
C364   C     0.41667   0.38428   1.13472   0.00000  Uiso   1.00
C365   C     0.43858   0.42750   1.15582   0.00000  Uiso   1.00
C366   C     0.42609   0.45160   1.14627   0.00000  Uiso   1.00
C367   C     0.35226   0.42287   1.15285   0.00000  Uiso   1.00
C368   C     0.26493   0.41021   1.10635   0.00000  Uiso   1.00
C369   C     0.41084   0.22161   1.09043   0.00000  Uiso   1.00
C370   C     0.41407   0.24377   1.07421   0.00000  Uiso   1.00
H371   H     0.34709   0.36979   1.12781   0.00000  Uiso   1.00
H372   H     0.33860   0.42812   1.13510   0.00000  Uiso   1.00
C373   C     0.37641   0.40791   1.14998   0.00000  Uiso   1.00
C374   C     0.46493   0.42843   1.16588   0.00000  Uiso   1.00
C375   C     0.22800   0.33476   0.97387   0.00000  Uiso   1.00
H376   H     0.31828   0.38225   1.01653   0.00000  Uiso   1.00
H377   H     0.37971   0.32670   1.04886   0.00000  Uiso   1.00
C378   C     0.29058   0.31268   1.12035   0.00000  Uiso   1.00
O379   O     0.40991   0.39313   1.03516   0.00000  Uiso   1.00
C380   C     0.44499   0.23637   0.98338   0.00000  Uiso   1.00
C381   C     0.30213   0.43916   1.03748   0.00000  Uiso   1.00
C382   C     0.36643   0.44830   1.01063   0.00000  Uiso   1.00
H383   H     0.49045   0.27408   1.05940   0.00000  Uiso   1.00
H384   H     0.37293   0.35075   1.11337   0.00000  Uiso   1.00
H385   H     0.25507   0.31163   1.06627   0.00000  Uiso   1.00
C386   C     0.24983   0.25732   1.02439   0.00000  Uiso   1.00
C387   C     0.32475   0.45737   1.04042   0.00000  Uiso   1.00
C388   C     0.48295   0.35656   1.00920   0.00000  Uiso   1.00
O389   O     0.31515   0.34033   1.16460   0.00000  Uiso   1.00
C390   C     0.24562   0.30629   1.01017   0.00000  Uiso   1.00
O391   O     0.35180   0.23525   1.13733   0.00000  Uiso   1.00
C392   C     0.31778   0.23729   1.10035   0.00000  Uiso   1.00
O393   O     0.26539   0.41198   1.05750   0.00000  Uiso   1.00
H394   H     0.43759   0.39204   1.20259   0.00000  Uiso   1.00
C395   C     0.39583   0.25054   1.05520   0.00000  Uiso   1.00
C396   C     0.54030   0.24291   1.04456   0.00000  Uiso   1.00
O397   O     0.50722   0.34550   1.00116   0.00000  Uiso   1.00
H398   H     0.28252   0.36169   1.04850   0.00000  Uiso   1.00
C399   C     0.32089   0.27613   1.03025   0.00000  Uiso   1.00
C400   C     0.47081   0.39948   1.17545   0.00000  Uiso   1.00
C401   C     0.40032   0.44179   0.97797   0.00000  Uiso   1.00
C402   C     0.37289   0.26071   1.18294   0.00000  Uiso   1.00
C403   C     0.25713   0.39746   1.13024   0.00000  Uiso   1.00
C404   C     0.31410   0.30133   1.13438   0.00000  Uiso   1.00
C405   C     0.38988   0.42375   1.19533   0.00000  Uiso   1.00
C406   C     0.32208   0.34801   1.19098   0.00000  Uiso   1.00
C407   C     0.28599   0.31610   1.03764   0.00000  Uiso   1.00
C408   C     0.53906   0.22672   1.12272   0.00000  Uiso   1.00
H409   H     0.48716   0.36339   1.15826   0.00000  Uiso   1.00
C410   C     0.35396   0.27499   1.16716   0.00000  Uiso   1.00
H411   H     0.40856   0.42683   1.20811   0.00000  Uiso   1.00
C412   C     0.24532   0.28531   1.03362   0.00000  Uiso   1.00
O413   O     0.43704   0.40990   0.98467   0.00000  Uiso   1.00
C414   C     0.33355   0.22367   1.11975   0.00000  Uiso   1.00
C415   C     0.52961   0.27150   1.03793   0.00000  Uiso   1.00
C416   C     0.22572   0.36901   1.10568   0.00000  Uiso   1.00
H417   H     0.29445   0.43578   1.01615   0.00000  Uiso   1.00
H418   H     0.32112   0.46009   0.98460   0.00000  Uiso   1.00
H419   H     0.22597   0.44584   1.17569   0.00000  Uiso   1.00
O420   O     0.35158   0.23764   1.03404   0.00000  Uiso   1.00
C421   C     0.34707   0.43919   1.17582   0.00000  Uiso   1.00
O422   O     0.35811   0.31466   1.19618   0.00000  Uiso   1.00
H423   H     0.49083   0.37554   1.20749   0.00000  Uiso   1.00
H424   H     0.40402   0.45111   1.14086   0.00000  Uiso   1.00
C425   C     0.42901   0.21905   0.99930   0.00000  Uiso   1.00
C426   C     0.54340   0.24126   1.09778   0.00000  Uiso   1.00
C427   C     0.52414   0.22147   1.02824   0.00000  Uiso   1.00
C428   C     0.40221   0.29255   0.96412   0.00000  Uiso   1.00
H429   H     0.50531   0.22950   1.02233   0.00000  Uiso   1.00
C430   C     0.47811   0.45315   1.16321   0.00000  Uiso   1.00
H431   H     0.43386   0.21436   1.16682   0.00000  Uiso   1.00
C432   C     0.45608   0.28232   0.96804   0.00000  Uiso   1.00
O433   O     0.32397   0.45456   1.17484   0.00000  Uiso   1.00
C434   C     0.21900   0.37689   1.05807   0.00000  Uiso   1.00
C435   C     0.31737   0.45905   1.08886   0.00000  Uiso   1.00
H436   H     0.53482   0.21782   1.01042   0.00000  Uiso   1.00
C437   C     0.21782   0.41677   0.97086   0.00000  Uiso   1.00
C438   C     0.48294   0.27430   0.96465   0.00000  Uiso   1.00
C439   C     0.22367   0.38910   0.96440   0.00000  Uiso   1.00
C440   C     0.47740   0.63205   0.41279   0.00000  Uiso   1.00
C441   C     0.49193   0.51620   0.25730   0.00000  Uiso   1.00
H442   H     0.49594   0.47481   0.36226   0.00000  Uiso   1.00
H443   H     0.43816   0.49530   0.28300   0.00000  Uiso   1.00
C444   C     0.24293   0.59911   0.30213   0.00000  Uiso   1.00
C445   C     0.38690   0.53772   0.42392   0.00000  Uiso   1.00
C446   C     0.42733   0.50377   0.26458   0.00000  Uiso   1.00
C447   C     0.51612   0.47397   0.25298   0.00000  Uiso   1.00
H448   H     0.43589   0.55965   0.22139   0.00000  Uiso   1.00
H449   H     0.32872   0.57452   0.40678   0.00000  Uiso   1.00
C450   C     0.32438   0.51754   0.23439   0.00000  Uiso   1.00
C451   C     0.48305   0.66385   0.35354   0.00000  Uiso   1.00
H452   H     0.29962   0.70550   0.44395   0.00000  Uiso   1.00
O453   O     0.52993   0.63458   0.28697   0.00000  Uiso   1.00
O454   O     0.40262   0.63661   0.39693   0.00000  Uiso   1.00
H455   H     0.43092   0.71080   0.44391   0.00000  Uiso   1.00
H456   H     0.43218   0.65327   0.28092   0.00000  Uiso   1.00
H457   H     0.22220   0.66343   0.35473   0.00000  Uiso   1.00
H458   H     0.31298   0.65318   0.22996   0.00000  Uiso   1.00
H459   H     0.31244   0.65675   0.30044   0.00000  Uiso   1.00
C460   C     0.43661   0.50505   0.46126   0.00000  Uiso   1.00
H461   H     0.34716   0.50639   0.41635   0.00000  Uiso   1.00
H462   H     0.50375   0.49132   0.29111   0.00000  Uiso   1.00
H463   H     0.32024   0.53025   0.41023   0.00000  Uiso   1.00
C464   C     0.33937   0.49389   0.23767   0.00000  Uiso   1.00
O465   O     0.53027   0.67071   0.36931   0.00000  Uiso   1.00
C466   C     0.53113   0.46559   0.40451   0.00000  Uiso   1.00
C467   C     0.29866   0.56544   0.22274   0.00000  Uiso   1.00
C468   C     0.49540   0.52627   0.38703   0.00000  Uiso   1.00
C469   C     0.37870   0.67727   0.23824   0.00000  Uiso   1.00
C470   C     0.26801   0.60981   0.30676   0.00000  Uiso   1.00
H471   H     0.42672   0.48798   0.25020   0.00000  Uiso   1.00
C472   C     0.27095   0.64409   0.26883   0.00000  Uiso   1.00
C473   C     0.45658   0.54667   0.27244   0.00000  Uiso   1.00
H474   H     0.29125   0.66200   0.34475   0.00000  Uiso   1.00
H475   H     0.39786   0.71020   0.30881   0.00000  Uiso   1.00
H476   H     0.31401   0.57527   0.28934   0.00000  Uiso   1.00
C477   C     0.35313   0.48894   0.26416   0.00000  Uiso   1.00
H478   H     0.39869   0.62304   0.27921   0.00000  Uiso   1.00
H479   H     0.40032   0.55684   0.42420   0.00000  Uiso   1.00
C480   C     0.48851   0.65082   0.26688   0.00000  Uiso   1.00
C481   C     0.47343   0.67335   0.25679   0.00000  Uiso   1.00
C482   C     0.52089   0.68333   0.28314   0.00000  Uiso   1.00
H483   H     0.36841   0.62514   0.26033   0.00000  Uiso   1.00
C484   C     0.43917   0.65779   0.33380   0.00000  Uiso   1.00
H485   H     0.21694   0.63159   0.43423   0.00000  Uiso   1.00
H486   H     0.40573   0.50769   0.26906   0.00000  Uiso   1.00
C487   C     0.50716   0.70532   0.27209   0.00000  Uiso   1.00
C488   C     0.38526   0.63757   0.26983   0.00000  Uiso   1.00
H489   H     0.28195   0.59027   0.37112   0.00000  Uiso   1.00
C490   C     0.42034   0.52895   0.46006   0.00000  Uiso   1.00
H491   H     0.34973   0.61452   0.33867   0.00000  Uiso   1.00
C492   C     0.26924   0.59480   0.35287   0.00000  Uiso   1.00
N493   N     0.51391   0.66274   0.43547   0.00000  Uiso   1.00
C494   C     0.50982   0.65497   0.35706   0.00000  Uiso   1.00
H495   H     0.30708   0.64340   0.37236   0.00000  Uiso   1.00
C496   C     0.23158   0.58363   0.32224   0.00000  Uiso   1.00
C497   C     0.53812   0.71106   0.39423   0.00000  Uiso   1.00
C498   C     0.49892   0.54895   0.29663   0.00000  Uiso   1.00
H499   H     0.39499   0.52549   0.40689   0.00000  Uiso   1.00
C500   C     0.53279   0.48754   0.38267   0.00000  Uiso   1.00
N501   N     0.41827   0.66711   0.32767   0.00000  Uiso   1.00
H502   H     0.33240   0.58576   0.32643   0.00000  Uiso   1.00
C503   C     0.52201   0.51691   0.38690   0.00000  Uiso   1.00
C504   C     0.32991   0.60304   0.33932   0.00000  Uiso   1.00
C505   C     0.51371   0.65629   0.27858   0.00000  Uiso   1.00
C506   C     0.28081   0.60960   0.33157   0.00000  Uiso   1.00
C507   C     0.49204   0.70409   0.37884   0.00000  Uiso   1.00
C508   C     0.48339   0.53718   0.27703   0.00000  Uiso   1.00
C509   C     0.39906   0.65664   0.25002   0.00000  Uiso   1.00
C510   C     0.27314   0.63873   0.23807   0.00000  Uiso   1.00
C511   C     0.29242   0.65919   0.22285   0.00000  Uiso   1.00
H512   H     0.52155   0.47743   0.33927   0.00000  Uiso   1.00
C513   C     0.46796   0.51533   0.23739   0.00000  Uiso   1.00
C514   C     0.30966   0.58001   0.26805   0.00000  Uiso   1.00
H515   H     0.32812   0.65862   0.34783   0.00000  Uiso   1.00
H516   H     0.24958   0.68656   0.35037   0.00000  Uiso   1.00
C517   C     0.51797   0.52223   0.24316   0.00000  Uiso   1.00
C518   C     0.29551   0.60329   0.26389   0.00000  Uiso   1.00
H519   H     0.36158   0.66812   0.22637   0.00000  Uiso   1.00
C520   C     0.30750   0.62272   0.33063   0.00000  Uiso   1.00
C521   C     0.30798   0.64753   0.35102   0.00000  Uiso   1.00
H522   H     0.23268   0.60285   0.28172   0.00000  Uiso   1.00
C523   C     0.49854   0.61226   0.33709   0.00000  Uiso   1.00
H524   H     0.52483   0.56619   0.24743   0.00000  Uiso   1.00
C525   C     0.31104   0.63425   0.30145   0.00000  Uiso   1.00
C526   C     0.39137   0.52213   0.45116   0.00000  Uiso   1.00
H527   H     0.32982   0.62707   0.29262   0.00000  Uiso   1.00
C528   C     0.41291   0.70013   0.43544   0.00000  Uiso   1.00
C529   C     0.28667   0.62375   0.28506   0.00000  Uiso   1.00
H530   H     0.47625   0.47514   0.27333   0.00000  Uiso   1.00
H531   H     0.35864   0.59320   0.41883   0.00000  Uiso   1.00
H532   H     0.31119   0.67488   0.43106   0.00000  Uiso   1.00
C533   C     0.51941   0.69580   0.38042   0.00000  Uiso   1.00
C534   C     0.34265   0.52524   0.40602   0.00000  Uiso   1.00
C535   C     0.34896   0.54710   0.45070   0.00000  Uiso   1.00
O536   O     0.47392   0.68950   0.36270   0.00000  Uiso   1.00
H537   H     0.52084   0.54425   0.30218   0.00000  Uiso   1.00
O538   O     0.44560   0.66900   0.42051   0.00000  Uiso   1.00
O539   O     0.50962   0.59857   0.40731   0.00000  Uiso   1.00
H540   H     0.37383   0.48191   0.45919   0.00000  Uiso   1.00
O541   O     0.50764   0.58650   0.32895   0.00000  Uiso   1.00
H542   H     0.40517   0.54432   0.23862   0.00000  Uiso   1.00
C543   C     0.45030   0.64279   0.41103   0.00000  Uiso   1.00
C544   C     0.49805   0.64834   0.42589   0.00000  Uiso   1.00
C545   C     0.39854   0.66140   0.40840   0.00000  Uiso   1.00
C546   C     0.53197   0.54650   0.23915   0.00000  Uiso   1.00
C547   C     0.46315   0.58211   0.30539   0.00000  Uiso   1.00
C548   C     0.49100   0.57390   0.31005   0.00000  Uiso   1.00
O549   O     0.45313   0.60528   0.31762   0.00000  Uiso   1.00
H550   H     0.27864   0.66500   0.27287   0.00000  Uiso   1.00
C551   C     0.51663   0.62882   0.35073   0.00000  Uiso   1.00
H552   H     0.42535   0.57438   0.28548   0.00000  Uiso   1.00
C553   C     0.41602   0.58575   0.37817   0.00000  Uiso   1.00
C554   C     0.42414   0.66696   0.26522   0.00000  Uiso   1.00
C555   C     0.41287   0.63700   0.22645   0.00000  Uiso   1.00
O556   O     0.46570   0.56289   0.38947   0.00000  Uiso   1.00
C557   C     0.51235   0.57059   0.40146   0.00000  Uiso   1.00
C558   C     0.37211   0.67231   0.40722   0.00000  Uiso   1.00
C559   C     0.48233   0.60679   0.40333   0.00000  Uiso   1.00
H560   H     0.37329   0.64598   0.28697   0.00000  Uiso   1.00
C561   C     0.35822   0.54693   0.42086   0.00000  Uiso   1.00
C562   C     0.44634   0.56691   0.28783   0.00000  Uiso   1.00
H563   H     0.48266   0.62943   0.26575   0.00000  Uiso   1.00
N564   N     0.40045   0.57370   0.36569   0.00000  Uiso   1.00
C565   C     0.46403   0.64651   0.34082   0.00000  Uiso   1.00
C566   C     0.41901   0.67686   0.42169   0.00000  Uiso   1.00
C567   C     0.47228   0.62108   0.33174   0.00000  Uiso   1.00
O568   O     0.23381   0.56428   0.36860   0.00000  Uiso   1.00
H569   H     0.38541   0.48453   0.42685   0.00000  Uiso   1.00
C570   C     0.44551   0.67116   0.24281   0.00000  Uiso   1.00
H571   H     0.42718   0.47554   0.41237   0.00000  Uiso   1.00
C572   C     0.49178   0.55321   0.39305   0.00000  Uiso   1.00
C573   C     0.46097   0.59061   0.39468   0.00000  Uiso   1.00
H574   H     0.47440   0.52651   0.21937   0.00000  Uiso   1.00
C575   C     0.42574   0.54110   0.23009   0.00000  Uiso   1.00
C576   C     0.42882   0.62744   0.40036   0.00000  Uiso   1.00
N577   N     0.36344   0.48413   0.28496   0.00000  Uiso   1.00
C578   C     0.31181   0.56056   0.24769   0.00000  Uiso   1.00
H579   H     0.35581   0.66216   0.39571   0.00000  Uiso   1.00
C580   C     0.43518   0.60138   0.39107   0.00000  Uiso   1.00
H581   H     0.32485   0.59507   0.35910   0.00000  Uiso   1.00
C582   C     0.48249   0.69975   0.25859   0.00000  Uiso   1.00
C583   C     0.54346   0.53355   0.39264   0.00000  Uiso   1.00
C584   C     0.44301   0.52733   0.25171   0.00000  Uiso   1.00
C585   C     0.41802   0.47930   0.45537   0.00000  Uiso   1.00
H586   H     0.47893   0.51046   0.38413   0.00000  Uiso   1.00
C587   C     0.28575   0.61007   0.23791   0.00000  Uiso   1.00
C588   C     0.22859   0.68101   0.34318   0.00000  Uiso   1.00
C589   C     0.53892   0.55956   0.40093   0.00000  Uiso   1.00
H590   H     0.34750   0.52402   0.38480   0.00000  Uiso   1.00
H591   H     0.24797   0.64673   0.27557   0.00000  Uiso   1.00
C592   C     0.24572   0.57995   0.34797   0.00000  Uiso   1.00
H593   H     0.35902   0.57633   0.38539   0.00000  Uiso   1.00
C594   C     0.54047   0.61812   0.36089   0.00000  Uiso   1.00
C595   C     0.28675   0.59079   0.21762   0.00000  Uiso   1.00
O596   O     0.32406   0.53700   0.25456   0.00000  Uiso   1.00
H597   H     0.23057   0.62361   0.23783   0.00000  Uiso   1.00
H598   H     0.23057   0.67448   0.32159   0.00000  Uiso   1.00
C599   C     0.24370   0.63816   0.22731   0.00000  Uiso   1.00
C600   C     0.49603   0.48825   0.27170   0.00000  Uiso   1.00
C601   C     0.51828   0.47136   0.36045   0.00000  Uiso   1.00
C602   C     0.35195   0.57508   0.40752   0.00000  Uiso   1.00
H603   H     0.36857   0.68687   0.25631   0.00000  Uiso   1.00
H604   H     0.46398   0.49466   0.22943   0.00000  Uiso   1.00
C605   C     0.31786   0.69357   0.44089   0.00000  Uiso   1.00
C606   C     0.33835   0.70988   0.42438   0.00000  Uiso   1.00
H607   H     0.23617   0.65939   0.22796   0.00000  Uiso   1.00
H608   H     0.53924   0.48780   0.44360   0.00000  Uiso   1.00
H609   H     0.30954   0.56713   0.44711   0.00000  Uiso   1.00
C610   C     0.53023   0.49782   0.23797   0.00000  Uiso   1.00
C611   C     0.53310   0.46768   0.43317   0.00000  Uiso   1.00
H612   H     0.32692   0.69020   0.46019   0.00000  Uiso   1.00
C613   C     0.44014   0.64739   0.22363   0.00000  Uiso   1.00
H614   H     0.41897   0.68582   0.27599   0.00000  Uiso   1.00
C615   C     0.44353   0.70051   0.22919   0.00000  Uiso   1.00
C616   C     0.34304   0.47562   0.21735   0.00000  Uiso   1.00
C617   C     0.38715   0.71081   0.43656   0.00000  Uiso   1.00
H618   H     0.28944   0.68085   0.22768   0.00000  Uiso   1.00
H619   H     0.38765   0.69315   0.22516   0.00000  Uiso   1.00
O620   O     0.54404   0.68997   0.29874   0.00000  Uiso   1.00
C621   C     0.39066   0.49095   0.44717   0.00000  Uiso   1.00
H622   H     0.33002   0.70070   0.38046   0.00000  Uiso   1.00
C623   C     0.36751   0.69724   0.42158   0.00000  Uiso   1.00
N624   N     0.22107   0.52530   0.42805   0.00000  Uiso   1.00
C625   C     0.32514   0.55717   0.46091   0.00000  Uiso   1.00
H626   H     0.42257   0.70885   0.23313   0.00000  Uiso   1.00
H627   H     0.22325   0.70671   0.39004   0.00000  Uiso   1.00
C628   C     0.49197   0.65946   0.61162   0.00000  Uiso   1.00
N629   N     0.32273   0.61445   0.52853   0.00000  Uiso   1.00
C630   C     0.24577   0.64648   0.59836   0.00000  Uiso   1.00
C631   C     0.27712   0.55918   0.58089   0.00000  Uiso   1.00
H632   H     0.33431   0.70112   0.69821   0.00000  Uiso   1.00
H633   H     0.30315   0.58970   0.65217   0.00000  Uiso   1.00
O634   O     0.29617   0.56494   0.49748   0.00000  Uiso   1.00
C635   C     0.32231   0.67569   0.60465   0.00000  Uiso   1.00
C636   C     0.53670   0.54545   0.57013   0.00000  Uiso   1.00
H637   H     0.47632   0.48714   0.68033   0.00000  Uiso   1.00
C638   C     0.31914   0.53979   0.59137   0.00000  Uiso   1.00
H639   H     0.48438   0.54189   0.64238   0.00000  Uiso   1.00
C640   C     0.22712   0.71048   0.58044   0.00000  Uiso   1.00
H641   H     0.36048   0.63203   0.67877   0.00000  Uiso   1.00
N642   N     0.44019   0.66934   0.65857   0.00000  Uiso   1.00
C643   C     0.24527   0.58118   0.51585   0.00000  Uiso   1.00
H644   H     0.51181   0.47571   0.61592   0.00000  Uiso   1.00
C645   C     0.49998   0.58100   0.47871   0.00000  Uiso   1.00
C646   C     0.32707   0.58988   0.69801   0.00000  Uiso   1.00
C647   C     0.23298   0.67405   0.63688   0.00000  Uiso   1.00
O648   O     0.33630   0.54738   0.53353   0.00000  Uiso   1.00
C649   C     0.52997   0.57199   0.58384   0.00000  Uiso   1.00
H650   H     0.22635   0.53402   0.69664   0.00000  Uiso   1.00
H651   H     0.50708   0.49122   0.69603   0.00000  Uiso   1.00
C652   C     0.36681   0.53277   0.46795   0.00000  Uiso   1.00
H653   H     0.27525   0.61124   0.68308   0.00000  Uiso   1.00
C654   C     0.29136   0.62342   0.69416   0.00000  Uiso   1.00
C655   C     0.49361   0.50197   0.68236   0.00000  Uiso   1.00
C656   C     0.26006   0.67783   0.64265   0.00000  Uiso   1.00
H657   H     0.24036   0.71312   0.59787   0.00000  Uiso   1.00
C658   C     0.22589   0.66217   0.61189   0.00000  Uiso   1.00
C659   C     0.31746   0.60668   0.65281   0.00000  Uiso   1.00
C660   C     0.45722   0.67444   0.64344   0.00000  Uiso   1.00
O661   O     0.36222   0.67165   0.53070   0.00000  Uiso   1.00
O662   O     0.23228   0.57610   0.56934   0.00000  Uiso   1.00
C663   C     0.37043   0.69658   0.52078   0.00000  Uiso   1.00
H664   H     0.33349   0.65754   0.67519   0.00000  Uiso   1.00
O665   O     0.52668   0.64619   0.57629   0.00000  Uiso   1.00
H666   H     0.37820   0.69366   0.69181   0.00000  Uiso   1.00
C667   C     0.27262   0.64995   0.60524   0.00000  Uiso   1.00
H668   H     0.45491   0.58634   0.69386   0.00000  Uiso   1.00
C669   C     0.31572   0.65593   0.58595   0.00000  Uiso   1.00
O670   O     0.29094   0.63982   0.58716   0.00000  Uiso   1.00
H671   H     0.33645   0.59984   0.64336   0.00000  Uiso   1.00
H672   H     0.49892   0.53636   0.54908   0.00000  Uiso   1.00
C673   C     0.52001   0.54207   0.54342   0.00000  Uiso   1.00
C674   C     0.30206   0.55112   0.57175   0.00000  Uiso   1.00
C675   C     0.33215   0.65307   0.56322   0.00000  Uiso   1.00
C676   C     0.32102   0.55660   0.48913   0.00000  Uiso   1.00
C677   C     0.53896   0.60643   0.49339   0.00000  Uiso   1.00
H678   H     0.26721   0.69289   0.65892   0.00000  Uiso   1.00
H679   H     0.21470   0.56778   0.69040   0.00000  Uiso   1.00
C680   C     0.34496   0.69363   0.60061   0.00000  Uiso   1.00
H681   H     0.23686   0.63543   0.58038   0.00000  Uiso   1.00
C682   C     0.35186   0.55084   0.71354   0.00000  Uiso   1.00
C683   C     0.35136   0.67232   0.55659   0.00000  Uiso   1.00
C684   C     0.25783   0.56943   0.56157   0.00000  Uiso   1.00
C685   C     0.51431   0.69275   0.58301   0.00000  Uiso   1.00
C686   C     0.49591   0.52443   0.63355   0.00000  Uiso   1.00
C687   C     0.52052   0.62017   0.58644   0.00000  Uiso   1.00
H688   H     0.24623   0.52876   0.64861   0.00000  Uiso   1.00
N689   N     0.33239   0.52995   0.60900   0.00000  Uiso   1.00
C690   C     0.36179   0.53138   0.49545   0.00000  Uiso   1.00
C691   C     0.50978   0.47476   0.63843   0.00000  Uiso   1.00
C692   C     0.47904   0.68126   0.62427   0.00000  Uiso   1.00
H693   H     0.52222   0.55944   0.53018   0.00000  Uiso   1.00
C694   C     0.38295   0.71301   0.70054   0.00000  Uiso   1.00
H695   H     0.48107   0.51354   0.62025   0.00000  Uiso   1.00
C696   C     0.26546   0.57264   0.53477   0.00000  Uiso   1.00
H697   H     0.41847   0.57220   0.46912   0.00000  Uiso   1.00
O698   O     0.27168   0.55464   0.60877   0.00000  Uiso   1.00
H699   H     0.49155   0.58249   0.64016   0.00000  Uiso   1.00
H700   H     0.54674   0.59948   0.55556   0.00000  Uiso   1.00
C701   C     0.51473   0.55641   0.48028   0.00000  Uiso   1.00
C702   C     0.51175   0.60674   0.48510   0.00000  Uiso   1.00
C703   C     0.52645   0.52407   0.59045   0.00000  Uiso   1.00
O704   O     0.37452   0.53415   0.71107   0.00000  Uiso   1.00
C705   C     0.28004   0.66917   0.62450   0.00000  Uiso   1.00
C706   C     0.31940   0.61513   0.68144   0.00000  Uiso   1.00
N707   N     0.48522   0.64987   0.49686   0.00000  Uiso   1.00
C708   C     0.48521   0.70831   0.61953   0.00000  Uiso   1.00
C709   C     0.24348   0.55360   0.61305   0.00000  Uiso   1.00
C710   C     0.54019   0.60679   0.68427   0.00000  Uiso   1.00
C711   C     0.50933   0.66562   0.58915   0.00000  Uiso   1.00
C712   C     0.51541   0.56716   0.60763   0.00000  Uiso   1.00
C713   C     0.53539   0.59842   0.57469   0.00000  Uiso   1.00
N714   N     0.22809   0.58825   0.50104   0.00000  Uiso   1.00
C715   C     0.32695   0.63180   0.54360   0.00000  Uiso   1.00
H716   H     0.31200   0.62412   0.63988   0.00000  Uiso   1.00
C717   C     0.45963   0.55579   0.47184   0.00000  Uiso   1.00
O718   O     0.30592   0.67780   0.62722   0.00000  Uiso   1.00
C719   C     0.49753   0.63067   0.48997   0.00000  Uiso   1.00
C720   C     0.31045   0.55419   0.54430   0.00000  Uiso   1.00
C721   C     0.53861   0.51168   0.65366   0.00000  Uiso   1.00
H722   H     0.37658   0.52179   0.50843   0.00000  Uiso   1.00
C723   C     0.29157   0.56419   0.52555   0.00000  Uiso   1.00
C724   C     0.37076   0.69917   0.49245   0.00000  Uiso   1.00
H725   H     0.54106   0.50512   0.59142   0.00000  Uiso   1.00
C726   C     0.34066   0.63803   0.68556   0.00000  Uiso   1.00
H727   H     0.50564   0.51505   0.58464   0.00000  Uiso   1.00
H728   H     0.48869   0.52276   0.68866   0.00000  Uiso   1.00
H729   H     0.22800   0.46798   0.70775   0.00000  Uiso   1.00
H730   H     0.36236   0.57428   0.67734   0.00000  Uiso   1.00
O731   O     0.49064   0.63419   0.62487   0.00000  Uiso   1.00
C732   C     0.50230   0.58811   0.62019   0.00000  Uiso   1.00
C733   C     0.51294   0.60477   0.68894   0.00000  Uiso   1.00
H734   H     0.49897   0.61639   0.67615   0.00000  Uiso   1.00
C735   C     0.22455   0.56674   0.59428   0.00000  Uiso   1.00
C736   C     0.50360   0.61425   0.60973   0.00000  Uiso   1.00
C737   C     0.34049   0.54439   0.50612   0.00000  Uiso   1.00
H738   H     0.41228   0.61718   0.68686   0.00000  Uiso   1.00
C739   C     0.51947   0.53793   0.61837   0.00000  Uiso   1.00
C740   C     0.50920   0.50289   0.65280   0.00000  Uiso   1.00
H741   H     0.36626   0.68188   0.47959   0.00000  Uiso   1.00
C742   C     0.52936   0.70127   0.56054   0.00000  Uiso   1.00
H743   H     0.52795   0.52287   0.53426   0.00000  Uiso   1.00
C744   C     0.47611   0.53154   0.47126   0.00000  Uiso   1.00
C745   C     0.23213   0.54054   0.63516   0.00000  Uiso   1.00
H746   H     0.22103   0.67337   0.68932   0.00000  Uiso   1.00
H747   H     0.23662   0.60599   0.70439   0.00000  Uiso   1.00
C748   C     0.43103   0.55410   0.46723   0.00000  Uiso   1.00
O749   O     0.47189   0.58170   0.47312   0.00000  Uiso   1.00
N750   N     0.52703   0.47449   0.54301   0.00000  Uiso   1.00
C751   C     0.34934   0.57191   0.69475   0.00000  Uiso   1.00
C752   C     0.54201   0.55821   0.48719   0.00000  Uiso   1.00
H753   H     0.41048   0.47224   0.50069   0.00000  Uiso   1.00
H754   H     0.34296   0.64345   0.70680   0.00000  Uiso   1.00
C755   C     0.35669   0.69423   0.57501   0.00000  Uiso   1.00
C756   C     0.35519   0.71174   0.61925   0.00000  Uiso   1.00
N757   N     0.44165   0.51548   0.70249   0.00000  Uiso   1.00
C758   C     0.40733   0.61074   0.70705   0.00000  Uiso   1.00
H759   H     0.39674   0.59178   0.70202   0.00000  Uiso   1.00
O760   O     0.50402   0.53179   0.47611   0.00000  Uiso   1.00
H761   H     0.28590   0.64562   0.69075   0.00000  Uiso   1.00
C762   C     0.46404   0.50654   0.46840   0.00000  Uiso   1.00
H763   H     0.47627   0.48897   0.46755   0.00000  Uiso   1.00
N764   N     0.54089   0.70843   0.54184   0.00000  Uiso   1.00
C765   C     0.54466   0.53414   0.63653   0.00000  Uiso   1.00
C766   C     0.50340   0.71321   0.70566   0.00000  Uiso   1.00
C767   C     0.50434   0.71376   0.59965   0.00000  Uiso   1.00
C768   C     0.50428   0.59119   0.71231   0.00000  Uiso   1.00
H769   H     0.22870   0.71364   0.67968   0.00000  Uiso   1.00
N770   N     0.36673   0.60901   0.84166   0.00000  Uiso   1.00
C771   C     0.26423   0.60945   0.73754   0.00000  Uiso   1.00
C772   C     0.41719   0.65396   0.86767   0.00000  Uiso   1.00
C773   C     0.36634   0.58620   0.84764   0.00000  Uiso   1.00
C774   C     0.48288   0.58213   0.75817   0.00000  Uiso   1.00
H775   H     0.49860   0.52802   0.74235   0.00000  Uiso   1.00
H776   H     0.50187   0.49158   0.93576   0.00000  Uiso   1.00
H777   H     0.43743   0.59424   0.91752   0.00000  Uiso   1.00
H778   H     0.43971   0.63903   0.79997   0.00000  Uiso   1.00
C779   C     0.32336   0.59708   0.95843   0.00000  Uiso   1.00
H780   H     0.25085   0.60234   0.80589   0.00000  Uiso   1.00
H781   H     0.44581   0.56668   0.72080   0.00000  Uiso   1.00
C782   C     0.24707   0.60383   0.78282   0.00000  Uiso   1.00
C783   C     0.23575   0.54342   0.93347   0.00000  Uiso   1.00
H784   H     0.52393   0.55111   0.84728   0.00000  Uiso   1.00
H785   H     0.52532   0.50521   0.95897   0.00000  Uiso   1.00
C786   C     0.43981   0.66282   0.72819   0.00000  Uiso   1.00
C787   C     0.23884   0.47043   0.76504   0.00000  Uiso   1.00
C788   C     0.51176   0.53558   0.86125   0.00000  Uiso   1.00
C789   C     0.23664   0.56178   0.90837   0.00000  Uiso   1.00
H790   H     0.27001   0.48163   0.94687   0.00000  Uiso   1.00
C791   C     0.38756   0.47889   0.77471   0.00000  Uiso   1.00
C792   C     0.37341   0.50202   0.86480   0.00000  Uiso   1.00
H793   H     0.24905   0.55372   0.94813   0.00000  Uiso   1.00
C794   C     0.37842   0.51641   0.73224   0.00000  Uiso   1.00
H795   H     0.48350   0.59951   0.77295   0.00000  Uiso   1.00
H796   H     0.50362   0.59601   0.91109   0.00000  Uiso   1.00
C797   C     0.41994   0.68490   0.83145   0.00000  Uiso   1.00
H798   H     0.31119   0.59103   0.78529   0.00000  Uiso   1.00
C799   C     0.43490   0.52715   0.89671   0.00000  Uiso   1.00
H800   H     0.30377   0.66706   0.79222   0.00000  Uiso   1.00
C801   C     0.34775   0.51441   0.85936   0.00000  Uiso   1.00
H802   H     0.28310   0.48179   0.76820   0.00000  Uiso   1.00
H803   H     0.52441   0.57468   0.79833   0.00000  Uiso   1.00
C804   C     0.26621   0.61480   0.76479   0.00000  Uiso   1.00
C805   C     0.51453   0.67577   0.89100   0.00000  Uiso   1.00
H806   H     0.32922   0.62034   0.79627   0.00000  Uiso   1.00
C807   C     0.51143   0.56916   0.75681   0.00000  Uiso   1.00
C808   C     0.30867   0.61176   0.79216   0.00000  Uiso   1.00
C809   C     0.49586   0.64575   0.72973   0.00000  Uiso   1.00
H810   H     0.28545   0.48311   0.89644   0.00000  Uiso   1.00
H811   H     0.41854   0.66926   0.72108   0.00000  Uiso   1.00
O812   O     0.27627   0.65130   0.92876   0.00000  Uiso   1.00
H813   H     0.29885   0.61284   0.81238   0.00000  Uiso   1.00
H814   H     0.52406   0.52847   0.87878   0.00000  Uiso   1.00
C815   C     0.23656   0.59085   0.91662   0.00000  Uiso   1.00
C816   C     0.41905   0.60007   0.75391   0.00000  Uiso   1.00
H817   H     0.40908   0.61088   0.87100   0.00000  Uiso   1.00
C818   C     0.31008   0.58836   0.72079   0.00000  Uiso   1.00
C819   C     0.40932   0.48803   0.75924   0.00000  Uiso   1.00
H820   H     0.43956   0.61521   0.82661   0.00000  Uiso   1.00
C821   C     0.43042   0.65745   0.83909   0.00000  Uiso   1.00
C822   C     0.30195   0.51318   0.87152   0.00000  Uiso   1.00
C823   C     0.34118   0.47724   0.78464   0.00000  Uiso   1.00
C824   C     0.41140   0.67871   0.88009   0.00000  Uiso   1.00
H825   H     0.53363   0.53046   0.75763   0.00000  Uiso   1.00
C826   C     0.39443   0.63102   0.90549   0.00000  Uiso   1.00
H827   H     0.23203   0.47487   0.91213   0.00000  Uiso   1.00
O828   O     0.43588   0.48017   0.76652   0.00000  Uiso   1.00
C829   C     0.54344   0.50868   0.81604   0.00000  Uiso   1.00
C830   C     0.33513   0.70364   0.84888   0.00000  Uiso   1.00
C831   C     0.52569   0.68414   0.86637   0.00000  Uiso   1.00
C832   C     0.31061   0.56496   0.73684   0.00000  Uiso   1.00
C833   C     0.42881   0.63440   0.81788   0.00000  Uiso   1.00
H834   H     0.39393   0.49772   0.95608   0.00000  Uiso   1.00
C835   C     0.46208   0.68085   0.72307   0.00000  Uiso   1.00
C836   C     0.47501   0.62760   0.73052   0.00000  Uiso   1.00
C837   C     0.36844   0.55900   0.85454   0.00000  Uiso   1.00
C838   C     0.44728   0.63481   0.72824   0.00000  Uiso   1.00
C839   C     0.48940   0.67216   0.72453   0.00000  Uiso   1.00
C840   C     0.52297   0.49888   0.83155   0.00000  Uiso   1.00
H841   H     0.36459   0.66906   0.84949   0.00000  Uiso   1.00
C842   C     0.26529   0.65757   0.85892   0.00000  Uiso   1.00
C843   C     0.40698   0.63071   0.88034   0.00000  Uiso   1.00
C844   C     0.45289   0.58680   0.71581   0.00000  Uiso   1.00
C845   C     0.26117   0.50235   0.94986   0.00000  Uiso   1.00
C846   C     0.26012   0.54721   0.89414   0.00000  Uiso   1.00
C847   C     0.45306   0.51699   0.91534   0.00000  Uiso   1.00
H848   H     0.40906   0.62547   0.81263   0.00000  Uiso   1.00
C849   C     0.25406   0.63400   0.92747   0.00000  Uiso   1.00
C850   C     0.22149   0.59691   0.77191   0.00000  Uiso   1.00
C851   C     0.53534   0.66374   0.84969   0.00000  Uiso   1.00
C852   C     0.44143   0.57192   0.91515   0.00000  Uiso   1.00
C853   C     0.50153   0.63944   0.91926   0.00000  Uiso   1.00
C854   C     0.34513   0.54267   0.85438   0.00000  Uiso   1.00
C855   C     0.36136   0.61243   0.93252   0.00000  Uiso   1.00
C856   C     0.30438   0.63523   0.74527   0.00000  Uiso   1.00
C857   C     0.27817   0.55795   0.87531   0.00000  Uiso   1.00
C858   C     0.27005   0.67997   0.93040   0.00000  Uiso   1.00
C859   C     0.25848   0.60696   0.92121   0.00000  Uiso   1.00
C860   C     0.48665   0.65993   0.93637   0.00000  Uiso   1.00
H861   H     0.43110   0.59792   0.77083   0.00000  Uiso   1.00
H862   H     0.49654   0.54599   0.87247   0.00000  Uiso   1.00
C863   C     0.36154   0.63674   0.94876   0.00000  Uiso   1.00
C864   C     0.41333   0.70044   0.85726   0.00000  Uiso   1.00
C865   C     0.29206   0.61359   0.72369   0.00000  Uiso   1.00
H866   H     0.46745   0.63764   0.85440   0.00000  Uiso   1.00
C867   C     0.46025   0.56098   0.93355   0.00000  Uiso   1.00
O868   O     0.32396   0.49793   0.86128   0.00000  Uiso   1.00
C869   C     0.26905   0.46789   0.75602   0.00000  Uiso   1.00
H870   H     0.29857   0.65593   0.74030   0.00000  Uiso   1.00
C871   C     0.26327   0.68537   0.85875   0.00000  Uiso   1.00
C872   C     0.51166   0.50993   0.94261   0.00000  Uiso   1.00
C873   C     0.39297   0.65572   0.91966   0.00000  Uiso   1.00
O874   O     0.48846   0.68682   0.93127   0.00000  Uiso   1.00
N875   N     0.26818   0.63374   0.85860   0.00000  Uiso   1.00
H876   H     0.27029   0.66910   0.77746   0.00000  Uiso   1.00
H877   H     0.46599   0.56794   0.76240   0.00000  Uiso   1.00
C878   C     0.26424   0.52048   0.90187   0.00000  Uiso   1.00
C879   C     0.28332   0.50426   0.89112   0.00000  Uiso   1.00
C880   C     0.24609   0.51460   0.92656   0.00000  Uiso   1.00
H881   H     0.51560   0.56114   0.94683   0.00000  Uiso   1.00
C882   C     0.43026   0.55575   0.89524   0.00000  Uiso   1.00
O883   O     0.33240   0.52374   0.75072   0.00000  Uiso   1.00
C884   C     0.39341   0.54834   0.86483   0.00000  Uiso   1.00
H885   H     0.51620   0.63566   0.73009   0.00000  Uiso   1.00
O886   O     0.41399   0.56622   0.87400   0.00000  Uiso   1.00
C887   C     0.24342   0.68949   0.93379   0.00000  Uiso   1.00
C888   C     0.52266   0.57792   0.72891   0.00000  Uiso   1.00
C889   C     0.33258   0.54718   0.73423   0.00000  Uiso   1.00
C890   C     0.39519   0.52064   0.87000   0.00000  Uiso   1.00
O891   O     0.51610   0.64799   0.89633   0.00000  Uiso   1.00
H892   H     0.22078   0.46382   0.85351   0.00000  Uiso   1.00
H893   H     0.46671   0.67253   0.86247   0.00000  Uiso   1.00
O894   O     0.41868   0.50832   0.88190   0.00000  Uiso   1.00
C895   C     0.46614   0.53461   0.93300   0.00000  Uiso   1.00
C896   C     0.49707   0.61245   0.92510   0.00000  Uiso   1.00
H897   H     0.27480   0.57995   0.86989   0.00000  Uiso   1.00
C898   C     0.34542   0.56789   0.92637   0.00000  Uiso   1.00
O899   O     0.51096   0.68908   0.71702   0.00000  Uiso   1.00
H900   H     0.39513   0.69770   0.91852   0.00000  Uiso   1.00
H901   H     0.32597   0.63385   0.74800   0.00000  Uiso   1.00
H902   H     0.46001   0.49494   0.91548   0.00000  Uiso   1.00
C903   C     0.36070   0.69172   0.85002   0.00000  Uiso   1.00
C904   C     0.29915   0.54152   0.86497   0.00000  Uiso   1.00
H905   H     0.54354   0.53186   0.81375   0.00000  Uiso   1.00
C906   C     0.50147   0.69487   0.90693   0.00000  Uiso   1.00
O907   O     0.38251   0.60714   0.91410   0.00000  Uiso   1.00
H908   H     0.40232   0.61438   0.75807   0.00000  Uiso   1.00
O909   O     0.38215   0.65609   0.94578   0.00000  Uiso   1.00
C910   C     0.46076   0.65774   0.84647   0.00000  Uiso   1.00
C911   C     0.48216   0.60434   0.94768   0.00000  Uiso   1.00
C912   C     0.48004   0.53023   0.82523   0.00000  Uiso   1.00
H913   H     0.29511   0.56191   0.75072   0.00000  Uiso   1.00
C914   C     0.23827   0.69800   0.86378   0.00000  Uiso   1.00
O915   O     0.31983   0.55478   0.85098   0.00000  Uiso   1.00
C916   C     0.29044   0.69915   0.92710   0.00000  Uiso   1.00
N917   N     0.34757   0.54663   0.91544   0.00000  Uiso   1.00
H918   H     0.46515   0.54030   0.83741   0.00000  Uiso   1.00
H919   H     0.36655   0.67664   0.73386   0.00000  Uiso   1.00
C920   C     0.28518   0.65624   0.78735   0.00000  Uiso   1.00
H921   H     0.47004   0.51852   0.80851   0.00000  Uiso   1.00
C922   C     0.53019   0.58122   0.77853   0.00000  Uiso   1.00
H923   H     0.46616   0.49378   0.86654   0.00000  Uiso   1.00
C924   C     0.40075   0.67934   0.90618   0.00000  Uiso   1.00
C925   C     0.48977   0.52895   0.95500   0.00000  Uiso   1.00
O926   O     0.31115   0.68697   0.84962   0.00000  Uiso   1.00
C927   C     0.47913   0.59557   0.72977   0.00000  Uiso   1.00
C928   C     0.36158   0.48749   0.76895   0.00000  Uiso   1.00
C929   C     0.51260   0.53764   0.75894   0.00000  Uiso   1.00
C930   C     0.48794   0.49078   0.86149   0.00000  Uiso   1.00
H931   H     0.21452   0.54339   0.94050   0.00000  Uiso   1.00
H932   H     0.27838   0.59812   0.91947   0.00000  Uiso   1.00
C933   C     0.47616   0.57570   0.95656   0.00000  Uiso   1.00
C934   C     0.29153   0.62943   0.77246   0.00000  Uiso   1.00
H935   H     0.49148   0.54610   0.81524   0.00000  Uiso   1.00
C936   C     0.52698   0.71107   0.85917   0.00000  Uiso   1.00
H937   H     0.39037   0.69319   0.75589   0.00000  Uiso   1.00
H938   H     0.47244   0.66142   0.82811   0.00000  Uiso   1.00
H939   H     0.48118   0.47640   0.78987   0.00000  Uiso   1.00
C940   C     0.31757   0.69000   0.92050   0.00000  Uiso   1.00
H941   H     0.35508   0.69746   0.76204   0.00000  Uiso   1.00
H942   H     0.50461   0.52872   0.77910   0.00000  Uiso   1.00
H943   H     0.24086   0.51495   0.76033   0.00000  Uiso   1.00
H944   H     0.27675   0.65191   0.80837   0.00000  Uiso   1.00
C945   C     0.35747   0.50777   0.74959   0.00000  Uiso   1.00
H946   H     0.40842   0.57975   0.75042   0.00000  Uiso   1.00
N947   N     0.33999   0.68433   0.91605   0.00000  Uiso   1.00
C948   C     0.49945   0.51365   0.84434   0.00000  Uiso   1.00
C949   C     0.37066   0.69497   0.74544   0.00000  Uiso   1.00
C950   C     0.34318   0.59236   0.93972   0.00000  Uiso   1.00
C951   C     0.40408   0.50613   0.73746   0.00000  Uiso   1.00
C952   C     0.38297   0.70786   0.85286   0.00000  Uiso   1.00
O953   O     0.22220   0.67050   0.93678   0.00000  Uiso   1.00
C954   C     0.23872   0.60411   0.72624   0.00000  Uiso   1.00
H955   H     0.53063   0.60423   0.77505   0.00000  Uiso   1.00
H956   H     0.52266   0.51802   0.92484   0.00000  Uiso   1.00
N957   N     0.32461   0.46862   0.79810   0.00000  Uiso   1.00
C958   C     0.37494   0.47400   0.87026   0.00000  Uiso   1.00
O959   O     0.45525   0.70811   0.71598   0.00000  Uiso   1.00
C960   C     0.22659   0.64374   0.93067   0.00000  Uiso   1.00
C961   C     0.28613   0.70036   0.85365   0.00000  Uiso   1.00
H962   H     0.21410   0.50093   0.74031   0.00000  Uiso   1.00
C963   C     0.47188   0.65132   0.95898   0.00000  Uiso   1.00
C964   C     0.43136   0.60829   0.72635   0.00000  Uiso   1.00
C965   C     0.22260   0.49405   0.91876   0.00000  Uiso   1.00
H966   H     0.23299   0.47751   0.80801   0.00000  Uiso   1.00
H967   H     0.33114   0.47384   0.93671   0.00000  Uiso   1.00
C968   C     0.42505   0.51078   0.71900   0.00000  Uiso   1.00
C969   C     0.52148   0.47017   0.83581   0.00000  Uiso   1.00
H970   H     0.27268   0.47425   0.73453   0.00000  Uiso   1.00
H971   H     0.40319   0.68331   0.81776   0.00000  Uiso   1.00
H972   H     0.43513   0.69496   0.81733   0.00000  Uiso   1.00
H973   H     0.32312   0.70512   0.73234   0.00000  Uiso   1.00
C974   C     0.43824   0.46754   0.79108   0.00000  Uiso   1.00
C975   C     0.46440   0.46748   0.80185   0.00000  Uiso   1.00
O976   O     0.21602   0.68147   0.87009   0.00000  Uiso   1.00
C977   C     0.22431   0.49878   0.76023   0.00000  Uiso   1.00
C978   C     0.21683   0.60068   0.74406   0.00000  Uiso   1.00
H979   H     0.50055   0.49148   0.88073   0.00000  Uiso   1.00
H980   H     0.27912   0.51637   0.95329   0.00000  Uiso   1.00
C981   C     0.50030   0.55702   0.96187   0.00000  Uiso   1.00
H982   H     0.36272   0.51490   0.95207   0.00000  Uiso   1.00
H983   H     0.41522   0.60716   0.95959   0.00000  Uiso   1.00
N984   N     0.54358   0.64590   0.83528   0.00000  Uiso   1.00
H985   H     0.21747   0.56955   0.86943   0.00000  Uiso   1.00
H986   H     0.36724   0.46407   0.93118   0.00000  Uiso   1.00
C987   C     0.46820   0.62328   0.96368   0.00000  Uiso   1.00
H988   H     0.39085   0.62285   0.71551   0.00000  Uiso   1.00
C989   C     0.30178   0.57663   1.07782   0.00000  Uiso   1.00
C990   C     0.25190   0.57654   1.06499   0.00000  Uiso   1.00
C991   C     0.46456   0.52396   1.15469   0.00000  Uiso   1.00
H992   H     0.26025   0.68958   1.03809   0.00000  Uiso   1.00
C993   C     0.53204   0.64920   1.13875   0.00000  Uiso   1.00
C994   C     0.29139   0.57824   0.98936   0.00000  Uiso   1.00
N995   N     0.36980   0.54713   1.14109   0.00000  Uiso   1.00
H996   H     0.45258   0.63645   1.02363   0.00000  Uiso   1.00
C997   C     0.31998   0.69344   1.05665   0.00000  Uiso   1.00
C998   C     0.36189   0.61499   1.12256   0.00000  Uiso   1.00
C999   C     0.31552   0.60272   1.11872   0.00000  Uiso   1.00
H1000  H     0.27789   0.53538   0.98935   0.00000  Uiso   1.00
H1001  H     0.41850   0.67379   1.05612   0.00000  Uiso   1.00
N1002  N     0.27919   0.50657   1.14767   0.00000  Uiso   1.00
H1003  H     0.27180   0.66870   1.07404   0.00000  Uiso   1.00
C1004  C     0.34368   0.51578   1.07817   0.00000  Uiso   1.00
H1005  H     0.52841   0.64335   1.04628   0.00000  Uiso   1.00
H1006  H     0.35133   0.69330   1.10928   0.00000  Uiso   1.00
H1007  H     0.49934   0.68241   1.02955   0.00000  Uiso   1.00
C1008  C     0.31216   0.68453   1.08553   0.00000  Uiso   1.00
H1009  H     0.46117   0.52459   0.99156   0.00000  Uiso   1.00
O1010  O     0.30604   0.57369   0.96597   0.00000  Uiso   1.00
C1011  C     0.43114   0.56708   1.16569   0.00000  Uiso   1.00
C1012  C     0.26216   0.55688   1.02366   0.00000  Uiso   1.00
H1013  H     0.50807   0.55676   0.98214   0.00000  Uiso   1.00
C1014  C     0.54238   0.60381   1.08714   0.00000  Uiso   1.00
C1015  C     0.26799   0.59690   1.10629   0.00000  Uiso   1.00
C1016  C     0.27578   0.55542   0.99818   0.00000  Uiso   1.00
H1017  H     0.43916   0.56645   0.98163   0.00000  Uiso   1.00
C1018  C     0.37427   0.50135   0.96668   0.00000  Uiso   1.00
C1019  C     0.27115   0.60628   1.02634   0.00000  Uiso   1.00
H1020  H     0.35026   0.66011   1.08904   0.00000  Uiso   1.00
C1021  C     0.42125   0.61474   0.98009   0.00000  Uiso   1.00
C1022  C     0.45689   0.57926   0.98071   0.00000  Uiso   1.00
H1023  H     0.32005   0.46976   1.10880   0.00000  Uiso   1.00
H1024  H     0.41485   0.68434   1.09152   0.00000  Uiso   1.00
H1025  H     0.36980   0.47483   1.10339   0.00000  Uiso   1.00
C1026  C     0.28765   0.60405   1.00224   0.00000  Uiso   1.00
H1027  H     0.35672   0.53297   1.07350   0.00000  Uiso   1.00
C1028  C     0.50676   0.63748   1.09899   0.00000  Uiso   1.00
H1029  H     0.46937   0.57248   0.99703   0.00000  Uiso   1.00
C1030  C     0.26410   0.70916   1.03075   0.00000  Uiso   1.00
C1031  C     0.28774   0.60464   1.12619   0.00000  Uiso   1.00
H1032  H     0.54362   0.59307   1.10677   0.00000  Uiso   1.00
N1033  N     0.52884   0.55623   1.16919   0.00000  Uiso   1.00
C1034  C     0.22526   0.62538   1.11724   0.00000  Uiso   1.00
C1035  C     0.43735   0.52248   1.14906   0.00000  Uiso   1.00
H1036  H     0.23164   0.55787   1.11823   0.00000  Uiso   1.00
H1037  H     0.26195   0.53556   1.07743   0.00000  Uiso   1.00
H1038  H     0.37507   0.50120   1.02651   0.00000  Uiso   1.00
O1039  O     0.43059   0.64390   1.13723   0.00000  Uiso   1.00
C1040  C     0.53622   0.63477   1.09020   0.00000  Uiso   1.00
N1041  N     0.36634   0.66394   1.17308   0.00000  Uiso   1.00
C1042  C     0.38214   0.63114   1.13520   0.00000  Uiso   1.00
C1043  C     0.45874   0.62981   1.09979   0.00000  Uiso   1.00
C1044  C     0.33509   0.47564   0.99023   0.00000  Uiso   1.00
O1045  O     0.46982   0.59326   1.18253   0.00000  Uiso   1.00
H1046  H     0.28079   0.61592   1.14481   0.00000  Uiso   1.00
H1047  H     0.27202   0.62442   1.04031   0.00000  Uiso   1.00
N1048  N     0.34456   0.68410   0.99895   0.00000  Uiso   1.00
H1049  H     0.22641   0.54198   1.07892   0.00000  Uiso   1.00
O1050  O     0.33613   0.61530   1.13458   0.00000  Uiso   1.00
H1051  H     0.53920   0.67291   1.06551   0.00000  Uiso   1.00
O1052  O     0.34931   0.58143   1.08787   0.00000  Uiso   1.00
C1053  C     0.33767   0.67506   1.10176   0.00000  Uiso   1.00
C1054  C     0.50689   0.70079   1.02069   0.00000  Uiso   1.00
H1055  H     0.23035   0.64503   1.10391   0.00000  Uiso   1.00
C1056  C     0.42094   0.60558   1.19118   0.00000  Uiso   1.00
C1057  C     0.42052   0.54451   1.15376   0.00000  Uiso   1.00
C1058  C     0.29399   0.50454   1.16589   0.00000  Uiso   1.00
C1059  C     0.47913   0.64993   1.13822   0.00000  Uiso   1.00
O1060  O     0.53835   0.67092   0.99786   0.00000  Uiso   1.00
O1061  O     0.42516   0.49898   1.13918   0.00000  Uiso   1.00
C1062  C     0.26024   0.58252   1.03613   0.00000  Uiso   1.00
C1063  C     0.50424   0.64746   1.12517   0.00000  Uiso   1.00
N1064  N     0.40102   0.57482   1.04268   0.00000  Uiso   1.00
C1065  C     0.41167   0.68990   1.06980   0.00000  Uiso   1.00
H1066  H     0.41687   0.63660   0.97867   0.00000  Uiso   1.00
H1067  H     0.39295   0.49571   1.08489   0.00000  Uiso   1.00
C1068  C     0.50598   0.55224   1.16590   0.00000  Uiso   1.00
C1069  C     0.29031   0.66344   1.08530   0.00000  Uiso   1.00
C1070  C     0.27526   0.58390   1.08288   0.00000  Uiso   1.00
H1071  H     0.34194   0.51057   1.02736   0.00000  Uiso   1.00
C1072  C     0.53562   0.62459   1.15743   0.00000  Uiso   1.00
C1073  C     0.36791   0.59928   1.09954   0.00000  Uiso   1.00
C1074  C     0.24537   0.53680   1.03877   0.00000  Uiso   1.00
H1075  H     0.30811   0.56210   1.06118   0.00000  Uiso   1.00
C1076  C     0.46030   0.61752   1.01537   0.00000  Uiso   1.00
O1077  O     0.29642   0.54587   1.20232   0.00000  Uiso   1.00
C1078  C     0.39266   0.54528   1.14673   0.00000  Uiso   1.00
C1079  C     0.43922   0.47654   1.14530   0.00000  Uiso   1.00
O1080  O     0.48142   0.50154   1.15301   0.00000  Uiso   1.00
H1081  H     0.28391   0.65683   1.10679   0.00000  Uiso   1.00
H1082  H     0.46568   0.49273   0.97551   0.00000  Uiso   1.00
H1083  H     0.27690   0.50587   1.04677   0.00000  Uiso   1.00
H1084  H     0.23062   0.58134   1.14642   0.00000  Uiso   1.00
H1085  H     0.46768   0.69716   1.06138   0.00000  Uiso   1.00
C1086  C     0.22997   0.59525   1.07743   0.00000  Uiso   1.00
C1087  C     0.23751   0.59952   1.10623   0.00000  Uiso   1.00
O1088  O     0.43872   0.61788   1.08624   0.00000  Uiso   1.00
H1089  H     0.26338   0.50602   1.01241   0.00000  Uiso   1.00
H1090  H     0.34185   0.69214   1.05418   0.00000  Uiso   1.00
C1091  C     0.31079   0.50064   1.18987   0.00000  Uiso   1.00
C1092  C     0.24505   0.54623   1.06753   0.00000  Uiso   1.00
C1093  C     0.45906   0.57016   1.17021   0.00000  Uiso   1.00
C1094  C     0.41364   0.61685   1.09901   0.00000  Uiso   1.00
C1095  C     0.32127   0.62105   0.97290   0.00000  Uiso   1.00
H1096  H     0.27903   0.59351   1.19737   0.00000  Uiso   1.00
H1097  H     0.46496   0.66842   0.97207   0.00000  Uiso   1.00
H1098  H     0.48399   0.62119   1.06557   0.00000  Uiso   1.00
C1099  C     0.32200   0.58710   1.09526   0.00000  Uiso   1.00
C1100  C     0.44936   0.61184   1.19218   0.00000  Uiso   1.00
C1101  C     0.37752   0.47976   1.08145   0.00000  Uiso   1.00
H1102  H     0.32300   0.52083   1.07130   0.00000  Uiso   1.00
H1103  H     0.47591   0.65975   1.15922   0.00000  Uiso   1.00
C1104  C     0.33035   0.46920   1.06548   0.00000  Uiso   1.00
O1105  O     0.30090   0.62744   0.99207   0.00000  Uiso   1.00
C1106  C     0.39794   0.58731   1.06262   0.00000  Uiso   1.00
C1107  C     0.45576   0.64015   1.12553   0.00000  Uiso   1.00
C1108  C     0.30101   0.70947   1.09908   0.00000  Uiso   1.00
H1109  H     0.34126   0.51259   1.10011   0.00000  Uiso   1.00
C1110  C     0.40809   0.63227   1.12325   0.00000  Uiso   1.00
C1111  C     0.39352   0.60085   1.08682   0.00000  Uiso   1.00
O1112  O     0.41107   0.58661   1.17299   0.00000  Uiso   1.00
C1113  C     0.34271   0.66386   0.98567   0.00000  Uiso   1.00
C1114  C     0.35541   0.49386   1.03317   0.00000  Uiso   1.00
H1115  H     0.30055   0.64637   1.07453   0.00000  Uiso   1.00
H1116  H     0.48370   0.61745   1.01761   0.00000  Uiso   1.00
H1117  H     0.32906   0.66744   1.12127   0.00000  Uiso   1.00
C1118  C     0.48345   0.62895   1.08664   0.00000  Uiso   1.00
H1119  H     0.38094   0.61393   1.20746   0.00000  Uiso   1.00
H1120  H     0.52876   0.70833   1.13087   0.00000  Uiso   1.00
H1121  H     0.45423   0.60157   1.02926   0.00000  Uiso   1.00
C1122  C     0.25892   0.50928   1.03456   0.00000  Uiso   1.00
C1123  C     0.37424   0.64957   1.15623   0.00000  Uiso   1.00
H1124  H     0.31196   0.68073   1.04010   0.00000  Uiso   1.00
C1125  C     0.47719   0.54902   1.16296   0.00000  Uiso   1.00
H1126  H     0.52732   0.59209   1.07397   0.00000  Uiso   1.00
H1127  H     0.40982   0.60594   0.99602   0.00000  Uiso   1.00
C1128  C     0.21815   0.53831   1.02466   0.00000  Uiso   1.00
C1129  C     0.35337   0.49004   1.06427   0.00000  Uiso   1.00
H1130  H     0.29580   0.70128   1.14312   0.00000  Uiso   1.00
H1131  H     0.38876   0.69034   1.06589   0.00000  Uiso   1.00
C1132  C     0.45139   0.60910   0.98664   0.00000  Uiso   1.00
H1133  H     0.23032   0.62947   1.13985   0.00000  Uiso   1.00
H1134  H     0.24641   0.49205   1.03949   0.00000  Uiso   1.00
C1135  C     0.47653   0.51190   0.98008   0.00000  Uiso   1.00
C1136  C     0.32509   0.47671   1.19412   0.00000  Uiso   1.00
H1137  H     0.23042   0.61430   1.06587   0.00000  Uiso   1.00
H1138  H     0.21794   0.52813   1.00523   0.00000  Uiso   1.00
C1139  C     0.34207   0.64010   0.96961   0.00000  Uiso   1.00
H1140  H     0.32306   0.49466   0.99068   0.00000  Uiso   1.00
H1141  H     0.51634   0.61362   1.16173   0.00000  Uiso   1.00
H1142  H     0.25032   0.50144   0.96818   0.00000  Uiso   1.00
H1143  H     0.29642   0.65366   1.19853   0.00000  Uiso   1.00
H1144  H     0.49216   0.50578   0.99499   0.00000  Uiso   1.00
C1145  C     0.22479   0.57868   1.12479   0.00000  Uiso   1.00
C1146  C     0.46617   0.47741   1.15385   0.00000  Uiso   1.00
C1147  C     0.53722   0.67286   1.15770   0.00000  Uiso   1.00
H1148  H     0.44841   0.69848   1.20813   0.00000  Uiso   1.00
C1149  C     0.53429   0.70012   1.15116   0.00000  Uiso   1.00
C1150  C     0.34467   0.46803   1.01810   0.00000  Uiso   1.00
C1151  C     0.31127   0.52165   1.20986   0.00000  Uiso   1.00
C1152  C     0.53009   0.69743   1.00445   0.00000  Uiso   1.00
H1153  H     0.36106   0.70856   0.97670   0.00000  Uiso   1.00
C1154  C     0.35905   0.47577   0.97227   0.00000  Uiso   1.00
H1155  H     0.37873   0.51578   0.98564   0.00000  Uiso   1.00
C1156  C     0.54007   0.64995   1.06376   0.00000  Uiso   1.00
H1157  H     0.47970   0.64033   1.20910   0.00000  Uiso   1.00
C1158  C     0.45881   0.63405   1.20683   0.00000  Uiso   1.00
H1159  H     0.53418   0.59892   1.21054   0.00000  Uiso   1.00
H1160  H     0.38164   0.70792   1.02397   0.00000  Uiso   1.00
C1161  C     0.53838   0.62152   1.20836   0.00000  Uiso   1.00
H1162  H     0.39154   0.46390   1.07236   0.00000  Uiso   1.00
H1163  H     0.24516   0.63269   1.20529   0.00000  Uiso   1.00
O1164  O     0.21747   0.70575   1.01764   0.00000  Uiso   1.00
C1165  C     0.40181   0.61930   1.20752   0.00000  Uiso   1.00
O1166  O     0.37902   0.71372   0.96995   0.00000  Uiso   1.00
H1167  H     0.42197   0.52650   1.21354   0.00000  Uiso   1.00
H1168  H     0.51701   0.62979   1.21007   0.00000  Uiso   1.00
C1169  C     0.49466   0.78790   0.42029   0.00000  Uiso   1.00
C1170  C     0.29952   0.82951   0.35400   0.00000  Uiso   1.00
H1171  H     0.46863   0.73241   0.46018   0.00000  Uiso   1.00
C1172  C     0.30535   0.85487   0.34423   0.00000  Uiso   1.00
C1173  C     0.28999   0.86473   0.32203   0.00000  Uiso   1.00
C1174  C     0.27191   0.84921   0.30769   0.00000  Uiso   1.00
C1175  C     0.32741   0.71665   0.39573   0.00000  Uiso   1.00
C1176  C     0.43049   0.94137   0.22310   0.00000  Uiso   1.00
H1177  H     0.38977   0.79018   0.26713   0.00000  Uiso   1.00
C1178  C     0.29882   0.90639   0.41838   0.00000  Uiso   1.00
C1179  C     0.52953   0.73188   0.41074   0.00000  Uiso   1.00
F1180  F     0.32219   0.86959   0.35906   0.00000  Uiso   1.00
C1181  C     0.28086   0.81170   0.33957   0.00000  Uiso   1.00
C1182  C     0.26659   0.82168   0.31604   0.00000  Uiso   1.00
H1183  H     0.25227   0.73936   0.36850   0.00000  Uiso   1.00
C1184  C     0.31254   0.82223   0.37929   0.00000  Uiso   1.00
H1185  H     0.41129   0.75486   0.45003   0.00000  Uiso   1.00
H1186  H     0.34102   0.83132   0.23607   0.00000  Uiso   1.00
H1187  H     0.43936   0.72674   0.28132   0.00000  Uiso   1.00
O1188  O     0.27517   0.78527   0.35030   0.00000  Uiso   1.00
H1189  H     0.36334   0.76955   0.27719   0.00000  Uiso   1.00
C1190  C     0.34543   0.73615   0.43974   0.00000  Uiso   1.00
C1191  C     0.32228   0.89632   0.43652   0.00000  Uiso   1.00
C1192  C     0.35570   0.83238   0.29269   0.00000  Uiso   1.00
H1193  H     0.42536   0.90122   0.23879   0.00000  Uiso   1.00
C1194  C     0.41001   0.79091   0.31085   0.00000  Uiso   1.00
O1195  O     0.43681   0.96255   0.35013   0.00000  Uiso   1.00
H1196  H     0.31794   0.78959   0.29492   0.00000  Uiso   1.00
H1197  H     0.34793   0.93244   0.44542   0.00000  Uiso   1.00
C1198  C     0.51771   0.91119   0.42211   0.00000  Uiso   1.00
H1199  H     0.22332   0.92334   0.45158   0.00000  Uiso   1.00
C1200  C     0.35577   0.87664   0.31127   0.00000  Uiso   1.00
C1201  C     0.24473   0.74676   0.34800   0.00000  Uiso   1.00
H1202  H     0.47522   0.78987   0.40827   0.00000  Uiso   1.00
H1203  H     0.34409   0.75541   0.42757   0.00000  Uiso   1.00
H1204  H     0.51237   0.79095   0.40691   0.00000  Uiso   1.00
C1205  C     0.50175   0.73819   0.41278   0.00000  Uiso   1.00
C1206  C     0.48139   0.73545   0.22213   0.00000  Uiso   1.00
H1207  H     0.33803   0.86405   0.40556   0.00000  Uiso   1.00
H1208  H     0.37825   0.83240   0.24181   0.00000  Uiso   1.00
C1209  C     0.41936   0.91920   0.37974   0.00000  Uiso   1.00
C1210  C     0.44091   0.91275   0.22781   0.00000  Uiso   1.00
O1211  O     0.49189   0.77285   0.32640   0.00000  Uiso   1.00
C1212  C     0.43083   0.80971   0.30519   0.00000  Uiso   1.00
C1213  C     0.45351   0.73794   0.26504   0.00000  Uiso   1.00
C1214  C     0.52368   0.75572   0.45102   0.00000  Uiso   1.00
H1215  H     0.36993   0.78029   0.34972   0.00000  Uiso   1.00
H1216  H     0.36820   0.72579   0.35344   0.00000  Uiso   1.00
O1217  O     0.24870   0.80466   0.30103   0.00000  Uiso   1.00
H1218  H     0.46973   0.74828   0.27645   0.00000  Uiso   1.00
N1219  N     0.23621   0.75839   0.44467   0.00000  Uiso   1.00
C1220  C     0.54534   0.74805   0.43102   0.00000  Uiso   1.00
H1221  H     0.44720   0.73867   0.33400   0.00000  Uiso   1.00
H1222  H     0.31606   0.78103   0.26023   0.00000  Uiso   1.00
C1223  C     0.31355   0.87437   0.45666   0.00000  Uiso   1.00
C1224  C     0.38017   0.79384   0.31023   0.00000  Uiso   1.00
C1225  C     0.39687   0.96278   0.32121   0.00000  Uiso   1.00
F1226  F     0.29372   0.89073   0.31275   0.00000  Uiso   1.00
H1227  H     0.49761   0.74712   0.23247   0.00000  Uiso   1.00
C1228  C     0.45817   0.80440   0.30989   0.00000  Uiso   1.00
H1229  H     0.33168   0.73928   0.45710   0.00000  Uiso   1.00
H1230  H     0.36263   0.87731   0.43153   0.00000  Uiso   1.00
C1231  C     0.29847   0.84987   0.45177   0.00000  Uiso   1.00
C1232  C     0.50414   0.81697   0.30710   0.00000  Uiso   1.00
H1233  H     0.30423   0.71902   0.39903   0.00000  Uiso   1.00
H1234  H     0.28288   0.91522   0.43034   0.00000  Uiso   1.00
C1235  C     0.37101   0.92100   0.32045   0.00000  Uiso   1.00
C1236  C     0.42885   0.95548   0.25051   0.00000  Uiso   1.00
C1237  C     0.52038   0.86084   0.41476   0.00000  Uiso   1.00
H1238  H     0.52660   0.84390   0.40135   0.00000  Uiso   1.00
C1239  C     0.24102   0.78134   0.31369   0.00000  Uiso   1.00
C1240  C     0.52383   0.83675   0.30027   0.00000  Uiso   1.00
C1241  C     0.25474   0.77133   0.33782   0.00000  Uiso   1.00
H1242  H     0.41710   0.94467   0.26599   0.00000  Uiso   1.00
N1243  N     0.32291   0.81658   0.39907   0.00000  Uiso   1.00
H1244  H     0.35121   0.89733   0.40255   0.00000  Uiso   1.00
C1245  C     0.46441   0.71962   0.24323   0.00000  Uiso   1.00
H1246  H     0.49573   0.80457   0.43584   0.00000  Uiso   1.00
H1247  H     0.36211   0.80414   0.22820   0.00000  Uiso   1.00
H1248  H     0.40247   0.71703   0.35672   0.00000  Uiso   1.00
N1249  N     0.43279   0.91115   0.39774   0.00000  Uiso   1.00
C1250  C     0.32205   0.79777   0.27389   0.00000  Uiso   1.00
C1251  C     0.52509   0.91486   0.44942   0.00000  Uiso   1.00
C1252  C     0.37366   0.73389   0.45236   0.00000  Uiso   1.00
H1253  H     0.21488   0.90666   0.35224   0.00000  Uiso   1.00
C1254  C     0.48347   0.72553   0.39559   0.00000  Uiso   1.00
H1255  H     0.51398   0.72632   0.27570   0.00000  Uiso   1.00
C1256  C     0.35150   0.80942   0.27126   0.00000  Uiso   1.00
C1257  C     0.34414   0.88221   0.41769   0.00000  Uiso   1.00
H1258  H     0.44836   0.95974   0.26039   0.00000  Uiso   1.00
H1259  H     0.42707   0.83142   0.29791   0.00000  Uiso   1.00
C1260  C     0.36518   0.95613   0.28423   0.00000  Uiso   1.00
H1261  H     0.28884   0.84699   0.43205   0.00000  Uiso   1.00
C1262  C     0.38939   0.73426   0.35441   0.00000  Uiso   1.00
C1263  C     0.21469   0.93861   0.38503   0.00000  Uiso   1.00
C1264  C     0.37712   0.83936   0.33599   0.00000  Uiso   1.00
H1265  H     0.49678   0.93090   0.38737   0.00000  Uiso   1.00
C1266  C     0.33354   0.91880   0.45456   0.00000  Uiso   1.00
N1267  N     0.25163   0.86893   0.26198   0.00000  Uiso   1.00
C1268  C     0.26027   0.86034   0.28224   0.00000  Uiso   1.00
H1269  H     0.30710   0.92209   0.40512   0.00000  Uiso   1.00
H1270  H     0.52004   0.85594   0.43575   0.00000  Uiso   1.00
C1271  C     0.38505   0.91086   0.34382   0.00000  Uiso   1.00
C1272  C     0.36962   0.77225   0.32927   0.00000  Uiso   1.00
C1273  C     0.54028   0.89273   0.37872   0.00000  Uiso   1.00
C1274  C     0.22296   0.92062   0.42966   0.00000  Uiso   1.00
C1275  C     0.37061   0.82310   0.31465   0.00000  Uiso   1.00
O1276  O     0.38397   0.88453   0.35332   0.00000  Uiso   1.00
H1277  H     0.38482   0.77565   0.43647   0.00000  Uiso   1.00
C1278  C     0.41726   0.76624   0.32392   0.00000  Uiso   1.00
H1279  H     0.29199   0.88870   0.40520   0.00000  Uiso   1.00
H1280  H     0.31517   0.93106   0.46043   0.00000  Uiso   1.00
C1281  C     0.22371   0.73213   0.33759   0.00000  Uiso   1.00
N1282  N     0.51011   0.87717   0.27028   0.00000  Uiso   1.00
C1283  C     0.51616   0.85933   0.28420   0.00000  Uiso   1.00
H1284  H     0.39640   0.73599   0.28404   0.00000  Uiso   1.00
C1285  C     0.46527   0.77889   0.32165   0.00000  Uiso   1.00
C1286  C     0.37205   0.78935   0.28033   0.00000  Uiso   1.00
C1287  C     0.51127   0.79275   0.32045   0.00000  Uiso   1.00
H1288  H     0.34017   0.86570   0.27250   0.00000  Uiso   1.00
O1289  O     0.47750   0.82411   0.30216   0.00000  Uiso   1.00
H1290  H     0.38772   0.83190   0.35603   0.00000  Uiso   1.00
C1291  C     0.41058   0.95271   0.34369   0.00000  Uiso   1.00
C1292  C     0.48968   0.95103   0.42570   0.00000  Uiso   1.00
H1293  H     0.45956   0.91225   0.23825   0.00000  Uiso   1.00
H1294  H     0.46195   0.73071   0.39788   0.00000  Uiso   1.00
H1295  H     0.51260   0.92624   0.27631   0.00000  Uiso   1.00
C1296  C     0.34805   0.85884   0.29113   0.00000  Uiso   1.00
H1297  H     0.34741   0.76559   0.32534   0.00000  Uiso   1.00
C1298  C     0.44479   0.75990   0.32779   0.00000  Uiso   1.00
H1299  H     0.52165   0.89147   0.36696   0.00000  Uiso   1.00
C1300  C     0.49978   0.93018   0.40982   0.00000  Uiso   1.00
C1301  C     0.39165   0.75028   0.32835   0.00000  Uiso   1.00
O1302  O     0.35181   0.90500   0.30663   0.00000  Uiso   1.00
C1303  C     0.21927   0.94253   0.41296   0.00000  Uiso   1.00
C1304  C     0.38999   0.76077   0.45246   0.00000  Uiso   1.00
H1305  H     0.43972   0.75411   0.25639   0.00000  Uiso   1.00
H1306  H     0.30638   0.81286   0.27087   0.00000  Uiso   1.00
H1307  H     0.53051   0.91611   0.30533   0.00000  Uiso   1.00
C1308  C     0.53811   0.78834   0.32745   0.00000  Uiso   1.00
C1309  C     0.35895   0.82084   0.24307   0.00000  Uiso   1.00
C1310  C     0.37092   0.86720   0.33425   0.00000  Uiso   1.00
O1311  O     0.21981   0.95817   0.25424   0.00000  Uiso   1.00
C1312  C     0.37660   0.94723   0.30927   0.00000  Uiso   1.00
H1313  H     0.49970   0.86377   0.40816   0.00000  Uiso   1.00
C1314  C     0.22052   0.76612   0.30282   0.00000  Uiso   1.00
C1315  C     0.22185   0.89423   0.41922   0.00000  Uiso   1.00
N1316  N     0.26719   0.74106   0.23001   0.00000  Uiso   1.00
C1317  C     0.40465   0.92802   0.35536   0.00000  Uiso   1.00
O1318  O     0.21496   0.86379   0.37932   0.00000  Uiso   1.00
H1319  H     0.50173   0.93561   0.31221   0.00000  Uiso   1.00
H1320  H     0.39276   0.74597   0.37278   0.00000  Uiso   1.00
O1321  O     0.21971   0.87360   0.43759   0.00000  Uiso   1.00
H1322  H     0.36665   0.72623   0.30271   0.00000  Uiso   1.00
C1323  C     0.38840   0.73125   0.30393   0.00000  Uiso   1.00
C1324  C     0.49306   0.95083   0.45525   0.00000  Uiso   1.00
C1325  C     0.49731   0.75932   0.43440   0.00000  Uiso   1.00
O1326  O     0.22496   0.80097   0.22574   0.00000  Uiso   1.00
C1327  C     0.53848   0.95773   0.29324   0.00000  Uiso   1.00
H1328  H     0.33599   0.73531   0.38793   0.00000  Uiso   1.00
C1329  C     0.21940   0.96072   0.28178   0.00000  Uiso   1.00
C1330  C     0.51868   0.93388   0.29720   0.00000  Uiso   1.00
C1331  C     0.21821   0.96365   0.33900   0.00000  Uiso   1.00
H1332  H     0.45399   0.75430   0.43489   0.00000  Uiso   1.00
C1333  C     0.21722   0.88946   0.39083   0.00000  Uiso   1.00
C1334  C     0.53571   0.88881   0.40900   0.00000  Uiso   1.00
C1335  C     0.54582   0.76453   0.33902   0.00000  Uiso   1.00
C1336  C     0.47086   0.75194   0.44939   0.00000  Uiso   1.00
C1337  C     0.21529   0.91297   0.37488   0.00000  Uiso   1.00
H1338  H     0.38323   0.90577   0.46351   0.00000  Uiso   1.00
H1339  H     0.38957   0.93236   0.21527   0.00000  Uiso   1.00
H1340  H     0.28169   0.91416   0.49702   0.00000  Uiso   1.00
C1341  C     0.37218   0.89704   0.48140   0.00000  Uiso   1.00
C1342  C     0.36579   0.92546   0.52282   0.00000  Uiso   1.00
C1343  C     0.31280   0.77807   0.68098   0.00000  Uiso   1.00
H1344  H     0.39264   0.90084   0.61102   0.00000  Uiso   1.00
H1345  H     0.37465   0.87291   0.53595   0.00000  Uiso   1.00
H1346  H     0.43282   0.77109   0.49749   0.00000  Uiso   1.00
C1347  C     0.39269   0.88260   0.52747   0.00000  Uiso   1.00
H1348  H     0.40509   0.86924   0.51487   0.00000  Uiso   1.00
H1349  H     0.25951   0.88524   0.60899   0.00000  Uiso   1.00
H1350  H     0.51776   0.79010   0.57894   0.00000  Uiso   1.00
C1351  C     0.51640   0.94922   0.67784   0.00000  Uiso   1.00
H1352  H     0.21995   0.81625   0.54523   0.00000  Uiso   1.00
C1353  C     0.34233   0.92744   0.50593   0.00000  Uiso   1.00
C1354  C     0.24514   0.91045   0.52186   0.00000  Uiso   1.00
O1355  O     0.53328   0.92137   0.53894   0.00000  Uiso   1.00
C1356  C     0.54375   0.88852   0.71095   0.00000  Uiso   1.00
H1357  H     0.21465   0.89947   0.63881   0.00000  Uiso   1.00
C1358  C     0.21978   0.92199   0.63415   0.00000  Uiso   1.00
C1359  C     0.52357   0.92268   0.68678   0.00000  Uiso   1.00
C1360  C     0.30874   0.83688   0.49882   0.00000  Uiso   1.00
C1361  C     0.32173   0.86198   0.50421   0.00000  Uiso   1.00
O1362  O     0.51214   0.74007   0.59140   0.00000  Uiso   1.00
C1363  C     0.44813   0.76156   0.70167   0.00000  Uiso   1.00
O1364  O     0.30604   0.81945   0.52110   0.00000  Uiso   1.00
H1365  H     0.32867   0.86432   0.52498   0.00000  Uiso   1.00
C1366  C     0.49611   0.85861   0.54816   0.00000  Uiso   1.00
H1367  H     0.25418   0.93512   0.48881   0.00000  Uiso   1.00
H1368  H     0.49396   0.84572   0.68490   0.00000  Uiso   1.00
C1369  C     0.49573   0.76530   0.68689   0.00000  Uiso   1.00
C1370  C     0.28277   0.77889   0.53927   0.00000  Uiso   1.00
C1371  C     0.28951   0.79545   0.51691   0.00000  Uiso   1.00
C1372  C     0.50735   0.88130   0.53491   0.00000  Uiso   1.00
H1373  H     0.22920   0.92889   0.65297   0.00000  Uiso   1.00
H1374  H     0.38064   0.72727   0.68427   0.00000  Uiso   1.00
C1375  C     0.50072   0.85426   0.57591   0.00000  Uiso   1.00
C1376  C     0.29439   0.78514   0.56418   0.00000  Uiso   1.00
H1377  H     0.54525   0.88471   0.49535   0.00000  Uiso   1.00
H1378  H     0.40062   0.84135   0.61446   0.00000  Uiso   1.00
H1379  H     0.22958   0.72650   0.64631   0.00000  Uiso   1.00
C1380  C     0.25199   0.75238   0.51205   0.00000  Uiso   1.00
C1381  C     0.52517   0.72896   0.69400   0.00000  Uiso   1.00
C1382  C     0.34943   0.96203   0.55209   0.00000  Uiso   1.00
C1383  C     0.26211   0.90866   0.61013   0.00000  Uiso   1.00
C1384  C     0.41453   0.94730   0.63890   0.00000  Uiso   1.00
H1385  H     0.39894   0.87965   0.64011   0.00000  Uiso   1.00
C1386  C     0.47755   0.83778   0.53596   0.00000  Uiso   1.00
H1387  H     0.42614   0.90839   0.49527   0.00000  Uiso   1.00
C1388  C     0.49601   0.76002   0.60342   0.00000  Uiso   1.00
C1389  C     0.30285   0.77505   0.65114   0.00000  Uiso   1.00
C1390  C     0.22102   0.91879   0.58377   0.00000  Uiso   1.00
H1391  H     0.36508   0.80457   0.50585   0.00000  Uiso   1.00
H1392  H     0.53231   0.86028   0.60674   0.00000  Uiso   1.00
C1393  C     0.40262   0.90074   0.63077   0.00000  Uiso   1.00
N1394  N     0.36468   0.72822   0.63413   0.00000  Uiso   1.00
C1395  C     0.26528   0.75804   0.53708   0.00000  Uiso   1.00
H1396  H     0.33259   0.74133   0.67132   0.00000  Uiso   1.00
C1397  C     0.52099   0.75351   0.68128   0.00000  Uiso   1.00
C1398  C     0.40243   0.91891   0.67798   0.00000  Uiso   1.00
C1399  C     0.51510   0.80693   0.67469   0.00000  Uiso   1.00
H1400  H     0.43747   0.89415   0.67875   0.00000  Uiso   1.00
C1401  C     0.33225   0.93915   0.68739   0.00000  Uiso   1.00
C1402  C     0.47779   0.72330   0.70543   0.00000  Uiso   1.00
H1403  H     0.33934   0.89747   0.69962   0.00000  Uiso   1.00
C1404  C     0.29614   0.83084   0.47346   0.00000  Uiso   1.00
H1405  H     0.27343   0.87576   0.52574   0.00000  Uiso   1.00
O1406  O     0.47048   0.72889   0.63289   0.00000  Uiso   1.00
C1407  C     0.53751   0.85086   0.67469   0.00000  Uiso   1.00
C1408  C     0.49966   0.92937   0.63557   0.00000  Uiso   1.00
H1409  H     0.43772   0.77220   0.64050   0.00000  Uiso   1.00
C1410  C     0.42232   0.90530   0.69095   0.00000  Uiso   1.00
H1411  H     0.45053   0.81048   0.55958   0.00000  Uiso   1.00
C1412  C     0.26340   0.77981   0.70000   0.00000  Uiso   1.00
H1413  H     0.42597   0.79744   0.47664   0.00000  Uiso   1.00
C1414  C     0.45609   0.77561   0.62769   0.00000  Uiso   1.00
H1415  H     0.30375   0.94836   0.49954   0.00000  Uiso   1.00
H1416  H     0.50766   0.80342   0.53928   0.00000  Uiso   1.00
C1417  C     0.28939   0.76982   0.69903   0.00000  Uiso   1.00
H1418  H     0.50169   0.88709   0.51291   0.00000  Uiso   1.00
H1419  H     0.47134   0.86191   0.62190   0.00000  Uiso   1.00
C1420  C     0.36079   0.94612   0.67563   0.00000  Uiso   1.00
C1421  C     0.45882   0.84941   0.60798   0.00000  Uiso   1.00
H1422  H     0.34244   0.78618   0.48378   0.00000  Uiso   1.00
H1423  H     0.24604   0.87268   0.54875   0.00000  Uiso   1.00
C1424  C     0.25974   0.91491   0.49525   0.00000  Uiso   1.00
H1425  H     0.22940   0.82988   0.57613   0.00000  Uiso   1.00
C1426  C     0.36434   0.79303   0.48536   0.00000  Uiso   1.00
H1427  H     0.30855   0.82445   0.68083   0.00000  Uiso   1.00
C1428  C     0.44282   0.82748   0.62230   0.00000  Uiso   1.00
C1429  C     0.41059   0.92438   0.50346   0.00000  Uiso   1.00
C1430  C     0.47758   0.83445   0.58648   0.00000  Uiso   1.00
H1431  H     0.43501   0.93978   0.63565   0.00000  Uiso   1.00
H1432  H     0.44352   0.84551   0.55951   0.00000  Uiso   1.00
C1433  C     0.24091   0.95476   0.60474   0.00000  Uiso   1.00
H1434  H     0.45008   0.87037   0.51838   0.00000  Uiso   1.00
N1435  N     0.42685   0.76987   0.70526   0.00000  Uiso   1.00
C1436  C     0.46016   0.83058   0.56057   0.00000  Uiso   1.00
H1437  H     0.40355   0.80741   0.62016   0.00000  Uiso   1.00
C1438  C     0.23606   0.72460   0.55726   0.00000  Uiso   1.00
C1439  C     0.36559   0.93176   0.64786   0.00000  Uiso   1.00
C1440  C     0.54191   0.94057   0.55937   0.00000  Uiso   1.00
C1441  C     0.27728   0.78880   0.49161   0.00000  Uiso   1.00
H1442  H     0.40885   0.95783   0.61795   0.00000  Uiso   1.00
H1443  H     0.32026   0.78138   0.63562   0.00000  Uiso   1.00
C1444  C     0.45576   0.93354   0.56516   0.00000  Uiso   1.00
H1445  H     0.29897   0.75342   0.64547   0.00000  Uiso   1.00
C1446  C     0.54335   0.88099   0.68090   0.00000  Uiso   1.00
C1447  C     0.47384   0.75041   0.69690   0.00000  Uiso   1.00
O1448  O     0.28158   0.80675   0.46881   0.00000  Uiso   1.00
N1449  N     0.30369   0.79081   0.58583   0.00000  Uiso   1.00
C1450  C     0.39548   0.92449   0.64780   0.00000  Uiso   1.00
C1451  C     0.49382   0.81399   0.52489   0.00000  Uiso   1.00
H1452  H     0.50960   0.88708   0.62893   0.00000  Uiso   1.00
C1453  C     0.32246   0.80672   0.68623   0.00000  Uiso   1.00
C1454  C     0.21564   0.91761   0.51939   0.00000  Uiso   1.00
H1455  H     0.44363   0.83548   0.50543   0.00000  Uiso   1.00
H1456  H     0.37215   0.87365   0.48136   0.00000  Uiso   1.00
H1457  H     0.25583   0.79492   0.68628   0.00000  Uiso   1.00
H1458  H     0.44524   0.86525   0.59821   0.00000  Uiso   1.00
H1459  H     0.45483   0.83176   0.66806   0.00000  Uiso   1.00
C1460  C     0.21664   0.71570   0.66046   0.00000  Uiso   1.00
C1461  C     0.25843   0.76751   0.49031   0.00000  Uiso   1.00
O1462  O     0.49204   0.79254   0.68194   0.00000  Uiso   1.00
C1463  C     0.25175   0.88055   0.52816   0.00000  Uiso   1.00
H1464  H     0.28543   0.78895   0.64798   0.00000  Uiso   1.00
H1465  H     0.38826   0.94017   0.55676   0.00000  Uiso   1.00
H1466  H     0.41461   0.79749   0.51051   0.00000  Uiso   1.00
H1467  H     0.35422   0.76470   0.68767   0.00000  Uiso   1.00
C1468  C     0.22896   0.93905   0.56038   0.00000  Uiso   1.00
H1469  H     0.33875   0.80972   0.67182   0.00000  Uiso   1.00
H1470  H     0.36852   0.80993   0.47030   0.00000  Uiso   1.00
H1471  H     0.26088   0.94986   0.53088   0.00000  Uiso   1.00
C1472  C     0.37530   0.72559   0.48254   0.00000  Uiso   1.00
H1473  H     0.41222   0.81797   0.58744   0.00000  Uiso   1.00
O1474  O     0.48760   0.93033   0.61068   0.00000  Uiso   1.00
H1475  H     0.27648   0.91410   0.59477   0.00000  Uiso   1.00
C1476  C     0.38680   0.90655   0.50898   0.00000  Uiso   1.00
N1477  N     0.45008   0.91325   0.55339   0.00000  Uiso   1.00
C1478  C     0.41397   0.82373   0.60965   0.00000  Uiso   1.00
C1479  C     0.52462   0.89766   0.54988   0.00000  Uiso   1.00
C1480  C     0.38192   0.93240   0.69368   0.00000  Uiso   1.00
H1481  H     0.47445   0.85392   0.49458   0.00000  Uiso   1.00
C1482  C     0.32186   0.94576   0.51225   0.00000  Uiso   1.00
H1483  H     0.42534   0.81095   0.65771   0.00000  Uiso   1.00
C1484  C     0.51347   0.83558   0.67789   0.00000  Uiso   1.00
H1485  H     0.40514   0.71391   0.70377   0.00000  Uiso   1.00
C1486  C     0.51087   0.93224   0.46523   0.00000  Uiso   1.00
C1487  C     0.38375   0.74289   0.52714   0.00000  Uiso   1.00
C1488  C     0.50156   0.78646   0.59510   0.00000  Uiso   1.00
C1489  C     0.52292   0.90143   0.66878   0.00000  Uiso   1.00
C1490  C     0.50798   0.90358   0.64410   0.00000  Uiso   1.00
H1491  H     0.25192   0.90030   0.48006   0.00000  Uiso   1.00
H1492  H     0.27028   0.91182   0.63040   0.00000  Uiso   1.00
H1493  H     0.48264   0.79810   0.51570   0.00000  Uiso   1.00
H1494  H     0.42227   0.84522   0.65916   0.00000  Uiso   1.00
H1495  H     0.23942   0.86626   0.51452   0.00000  Uiso   1.00
H1496  H     0.39310   0.75836   0.54024   0.00000  Uiso   1.00
H1497  H     0.40399   0.88910   0.54507   0.00000  Uiso   1.00
C1498  C     0.47758   0.95551   0.60390   0.00000  Uiso   1.00
C1499  C     0.45997   0.85072   0.51202   0.00000  Uiso   1.00
C1500  C     0.43723   0.82977   0.65362   0.00000  Uiso   1.00
C1501  C     0.48226   0.80663   0.59966   0.00000  Uiso   1.00
C1502  C     0.46016   0.80122   0.61763   0.00000  Uiso   1.00
H1503  H     0.41771   0.93363   0.52138   0.00000  Uiso   1.00
C1504  C     0.50606   0.95330   0.65196   0.00000  Uiso   1.00
C1505  C     0.38109   0.74773   0.49930   0.00000  Uiso   1.00
C1506  C     0.53976   0.79477   0.66973   0.00000  Uiso   1.00
H1507  H     0.51563   0.93357   0.48736   0.00000  Uiso   1.00
C1508  C     0.37622   0.71919   0.53819   0.00000  Uiso   1.00
H1509  H     0.50697   0.82218   0.50779   0.00000  Uiso   1.00
H1510  H     0.27091   0.92283   0.55551   0.00000  Uiso   1.00
C1511  C     0.31657   0.96229   0.68862   0.00000  Uiso   1.00
C1512  C     0.22275   0.71963   0.53292   0.00000  Uiso   1.00
H1513  H     0.35561   0.91101   0.64880   0.00000  Uiso   1.00
C1514  C     0.36867   0.94158   0.54575   0.00000  Uiso   1.00
C1515  C     0.29294   0.96113   0.70455   0.00000  Uiso   1.00
C1516  C     0.23634   0.92500   0.60919   0.00000  Uiso   1.00
H1517  H     0.40742   0.94148   0.48844   0.00000  Uiso   1.00
O1518  O     0.25738   0.74343   0.55998   0.00000  Uiso   1.00
O1519  O     0.23211   0.73169   0.50895   0.00000  Uiso   1.00
C1520  C     0.41635   0.78468   0.49166   0.00000  Uiso   1.00
C1521  C     0.46150   0.95703   0.58073   0.00000  Uiso   1.00
H1522  H     0.35621   0.94303   0.63032   0.00000  Uiso   1.00
H1523  H     0.42488   0.90214   0.62529   0.00000  Uiso   1.00
C1524  C     0.47399   0.75420   0.62093   0.00000  Uiso   1.00
C1525  C     0.32464   0.88062   0.48220   0.00000  Uiso   1.00
C1526  C     0.52322   0.86571   0.58734   0.00000  Uiso   1.00
H1527  H     0.52039   0.73998   0.46689   0.00000  Uiso   1.00
O1528  O     0.54272   0.76709   0.66804   0.00000  Uiso   1.00
C1529  C     0.25357   0.93115   0.54322   0.00000  Uiso   1.00
C1530  C     0.33331   0.75691   0.68711   0.00000  Uiso   1.00
H1531  H     0.46626   0.95466   0.71048   0.00000  Uiso   1.00
H1532  H     0.32872   0.80896   0.70699   0.00000  Uiso   1.00
C1533  C     0.32587   0.91478   0.70015   0.00000  Uiso   1.00
C1534  C     0.38728   0.77229   0.48153   0.00000  Uiso   1.00
C1535  C     0.53372   0.88861   0.57524   0.00000  Uiso   1.00
C1536  C     0.34314   0.90611   0.48192   0.00000  Uiso   1.00
H1537  H     0.21575   0.82214   0.62109   0.00000  Uiso   1.00
H1538  H     0.22366   0.89748   0.57585   0.00000  Uiso   1.00
O1539  O     0.37478   0.71508   0.56649   0.00000  Uiso   1.00
H1540  H     0.46912   0.76530   0.46670   0.00000  Uiso   1.00
C1541  C     0.23466   0.96335   0.57849   0.00000  Uiso   1.00
H1542  H     0.41604   0.96370   0.65318   0.00000  Uiso   1.00
C1543  C     0.24671   0.76216   0.46524   0.00000  Uiso   1.00
H1544  H     0.52818   0.77348   0.46469   0.00000  Uiso   1.00
C1545  C     0.35481   0.74897   0.85355   0.00000  Uiso   1.00
H1546  H     0.36601   0.86157   0.89329   0.00000  Uiso   1.00
H1547  H     0.22910   0.85592   0.90726   0.00000  Uiso   1.00
C1548  C     0.32188   0.86680   0.92587   0.00000  Uiso   1.00
C1549  C     0.24326   0.76942   0.71777   0.00000  Uiso   1.00
H1550  H     0.39735   0.76646   0.89812   0.00000  Uiso   1.00
O1551  O     0.51764   0.94505   0.93643   0.00000  Uiso   1.00
C1552  C     0.38975   0.78208   0.75982   0.00000  Uiso   1.00
C1553  C     0.34020   0.84151   0.92414   0.00000  Uiso   1.00
C1554  C     0.47124   0.82681   0.93639   0.00000  Uiso   1.00
N1555  N     0.41185   0.87120   0.83679   0.00000  Uiso   1.00
C1556  C     0.51274   0.87162   0.92974   0.00000  Uiso   1.00
C1557  C     0.52890   0.77842   0.74674   0.00000  Uiso   1.00
H1558  H     0.22282   0.89798   0.93427   0.00000  Uiso   1.00
C1559  C     0.29616   0.74846   0.71704   0.00000  Uiso   1.00
C1560  C     0.36275   0.79340   0.76273   0.00000  Uiso   1.00
C1561  C     0.30183   0.77170   0.92818   0.00000  Uiso   1.00
C1562  C     0.45324   0.83185   0.74512   0.00000  Uiso   1.00
C1563  C     0.26767   0.90204   0.93391   0.00000  Uiso   1.00
H1564  H     0.49798   0.90779   0.73588   0.00000  Uiso   1.00
C1565  C     0.28460   0.86051   0.87163   0.00000  Uiso   1.00
C1566  C     0.24187   0.95208   0.78708   0.00000  Uiso   1.00
H1567  H     0.49988   0.83844   0.80880   0.00000  Uiso   1.00
C1568  C     0.51609   0.73031   0.87617   0.00000  Uiso   1.00
C1569  C     0.25668   0.92721   0.78403   0.00000  Uiso   1.00
C1570  C     0.29139   0.85858   0.92287   0.00000  Uiso   1.00
O1571  O     0.25406   0.91781   0.83234   0.00000  Uiso   1.00
H1572  H     0.39757   0.79047   0.87190   0.00000  Uiso   1.00
H1573  H     0.40333   0.93786   0.89362   0.00000  Uiso   1.00
H1574  H     0.35134   0.77164   0.85132   0.00000  Uiso   1.00
C1575  C     0.25756   0.77039   0.85704   0.00000  Uiso   1.00
H1576  H     0.44948   0.83620   0.88629   0.00000  Uiso   1.00
O1577  O     0.30692   0.74549   0.85145   0.00000  Uiso   1.00
H1578  H     0.40145   0.77940   0.82502   0.00000  Uiso   1.00
H1579  H     0.31641   0.94786   0.88059   0.00000  Uiso   1.00
N1580  N     0.30418   0.83152   0.76656   0.00000  Uiso   1.00
O1581  O     0.36043   0.81901   0.77513   0.00000  Uiso   1.00
C1582  C     0.26763   0.92045   0.75922   0.00000  Uiso   1.00
C1583  C     0.40774   0.82395   0.76387   0.00000  Uiso   1.00
C1584  C     0.42855   0.84179   0.75498   0.00000  Uiso   1.00
C1585  C     0.38082   0.86417   0.77595   0.00000  Uiso   1.00
C1586  C     0.42290   0.86853   0.75172   0.00000  Uiso   1.00
C1587  C     0.40702   0.77182   0.87905   0.00000  Uiso   1.00
C1588  C     0.26082   0.91281   0.88151   0.00000  Uiso   1.00
H1589  H     0.53901   0.90157   0.94896   0.00000  Uiso   1.00
O1590  O     0.39699   0.90883   0.76254   0.00000  Uiso   1.00
C1591  C     0.39999   0.88110   0.76538   0.00000  Uiso   1.00
C1592  C     0.38268   0.83637   0.77201   0.00000  Uiso   1.00
C1593  C     0.35802   0.87503   0.78799   0.00000  Uiso   1.00
C1594  C     0.28349   0.89598   0.75488   0.00000  Uiso   1.00
C1595  C     0.29520   0.85201   0.77184   0.00000  Uiso   1.00
N1596  N     0.33880   0.88575   0.79761   0.00000  Uiso   1.00
C1597  C     0.28430   0.87732   0.77670   0.00000  Uiso   1.00
O1598  O     0.27823   0.86476   0.82333   0.00000  Uiso   1.00
C1599  C     0.27405   0.88404   0.80256   0.00000  Uiso   1.00
C1600  C     0.26021   0.90901   0.80616   0.00000  Uiso   1.00
C1601  C     0.32421   0.78974   0.92549   0.00000  Uiso   1.00
C1602  C     0.28694   0.93795   0.71969   0.00000  Uiso   1.00
C1603  C     0.33935   0.78088   0.75223   0.00000  Uiso   1.00
C1604  C     0.32644   0.74325   0.71510   0.00000  Uiso   1.00
C1605  C     0.27453   0.87550   0.84975   0.00000  Uiso   1.00
C1606  C     0.26433   0.90246   0.85456   0.00000  Uiso   1.00
O1607  O     0.40100   0.94306   0.82313   0.00000  Uiso   1.00
H1608  H     0.32976   0.87764   0.94486   0.00000  Uiso   1.00
C1609  C     0.47271   0.89002   0.90922   0.00000  Uiso   1.00
N1610  N     0.47459   0.75339   0.93235   0.00000  Uiso   1.00
H1611  H     0.42914   0.77764   0.88404   0.00000  Uiso   1.00
H1612  H     0.41181   0.74699   0.81169   0.00000  Uiso   1.00
C1613  C     0.53116   0.76525   0.84651   0.00000  Uiso   1.00
H1614  H     0.42982   0.72691   0.88508   0.00000  Uiso   1.00
C1615  C     0.37958   0.73590   0.85389   0.00000  Uiso   1.00
C1616  C     0.22968   0.85032   0.71611   0.00000  Uiso   1.00
C1617  C     0.41490   0.76240   0.82871   0.00000  Uiso   1.00
H1618  H     0.44946   0.83479   0.93924   0.00000  Uiso   1.00
C1619  C     0.50652   0.91998   0.92971   0.00000  Uiso   1.00
C1620  C     0.53214   0.84657   0.92945   0.00000  Uiso   1.00
O1621  O     0.43336   0.72586   0.94627   0.00000  Uiso   1.00
H1622  H     0.48049   0.83291   0.95558   0.00000  Uiso   1.00
C1623  C     0.51624   0.92110   0.73825   0.00000  Uiso   1.00
N1624  N     0.25789   0.79404   0.85580   0.00000  Uiso   1.00
H1625  H     0.50791   0.77920   0.75640   0.00000  Uiso   1.00
C1626  C     0.28568   0.72680   0.92822   0.00000  Uiso   1.00
C1627  C     0.50577   0.88200   0.81644   0.00000  Uiso   1.00
C1628  C     0.47150   0.83348   0.88360   0.00000  Uiso   1.00
C1629  C     0.51948   0.89697   0.93767   0.00000  Uiso   1.00
H1630  H     0.41102   0.74510   0.74761   0.00000  Uiso   1.00
C1631  C     0.25051   0.74870   0.73709   0.00000  Uiso   1.00
H1632  H     0.52927   0.82567   0.76329   0.00000  Uiso   1.00
C1633  C     0.30310   0.91410   0.71640   0.00000  Uiso   1.00
C1634  C     0.48756   0.73974   0.91817   0.00000  Uiso   1.00
C1635  C     0.35808   0.94437   0.93025   0.00000  Uiso   1.00
C1636  C     0.23533   0.72651   0.86327   0.00000  Uiso   1.00
O1637  O     0.25280   0.76316   0.93308   0.00000  Uiso   1.00
C1638  C     0.40862   0.74978   0.85650   0.00000  Uiso   1.00
C1639  C     0.54607   0.75084   0.80151   0.00000  Uiso   1.00
C1640  C     0.38171   0.93192   0.72212   0.00000  Uiso   1.00
H1641  H     0.34546   0.83667   0.87952   0.00000  Uiso   1.00
H1642  H     0.36435   0.94304   0.73173   0.00000  Uiso   1.00
C1643  C     0.31872   0.81822   0.92448   0.00000  Uiso   1.00
O1644  O     0.29633   0.89052   0.73082   0.00000  Uiso   1.00
C1645  C     0.25822   0.74237   0.85920   0.00000  Uiso   1.00
H1646  H     0.52791   0.87394   0.71947   0.00000  Uiso   1.00
C1647  C     0.42833   0.72710   0.86344   0.00000  Uiso   1.00
C1648  C     0.39217   0.75596   0.75086   0.00000  Uiso   1.00
C1649  C     0.48602   0.93432   0.81991   0.00000  Uiso   1.00
C1650  C     0.23920   0.91126   0.94305   0.00000  Uiso   1.00
C1651  C     0.27757   0.73839   0.73574   0.00000  Uiso   1.00
N1652  N     0.47327   0.82332   0.73729   0.00000  Uiso   1.00
C1653  C     0.51450   0.85635   0.81074   0.00000  Uiso   1.00
C1654  C     0.42440   0.89146   0.83364   0.00000  Uiso   1.00
O1655  O     0.47874   0.88530   0.82624   0.00000  Uiso   1.00
H1656  H     0.45415   0.88708   0.89763   0.00000  Uiso   1.00
H1657  H     0.43609   0.76874   0.82879   0.00000  Uiso   1.00
C1658  C     0.48529   0.83801   0.91131   0.00000  Uiso   1.00
C1659  C     0.44070   0.91454   0.82763   0.00000  Uiso   1.00
O1660  O     0.41407   0.79689   0.76407   0.00000  Uiso   1.00
H1661  H     0.31900   0.78991   0.75687   0.00000  Uiso   1.00
O1662  O     0.51433   0.93115   0.82008   0.00000  Uiso   1.00
H1663  H     0.29453   0.84138   0.87136   0.00000  Uiso   1.00
C1664  C     0.36958   0.74470   0.73868   0.00000  Uiso   1.00
C1665  C     0.48215   0.91659   0.91414   0.00000  Uiso   1.00
C1666  C     0.27066   0.80917   0.92924   0.00000  Uiso   1.00
C1667  C     0.27469   0.78127   0.92943   0.00000  Uiso   1.00
C1668  C     0.51595   0.82720   0.90988   0.00000  Uiso   1.00
C1669  C     0.48745   0.86726   0.91682   0.00000  Uiso   1.00
H1670  H     0.47404   0.81237   0.87711   0.00000  Uiso   1.00
H1671  H     0.46961   0.80456   0.93229   0.00000  Uiso   1.00
C1672  C     0.46906   0.91168   0.82372   0.00000  Uiso   1.00
C1673  C     0.26934   0.89626   0.90390   0.00000  Uiso   1.00
C1674  C     0.28095   0.87078   0.89838   0.00000  Uiso   1.00
C1675  C     0.35655   0.84252   0.89820   0.00000  Uiso   1.00
C1676  C     0.52310   0.90480   0.81552   0.00000  Uiso   1.00
H1677  H     0.44130   0.74285   0.94206   0.00000  Uiso   1.00
H1678  H     0.34439   0.94222   0.94746   0.00000  Uiso   1.00
H1679  H     0.37313   0.84874   0.95480   0.00000  Uiso   1.00
C1680  C     0.33580   0.71471   0.71667   0.00000  Uiso   1.00
O1681  O     0.51878   0.75879   0.87152   0.00000  Uiso   1.00
H1682  H     0.47969   0.84789   0.86889   0.00000  Uiso   1.00
H1683  H     0.21431   0.82390   0.91472   0.00000  Uiso   1.00
H1684  H     0.28722   0.72390   0.74951   0.00000  Uiso   1.00
H1685  H     0.25522   0.93364   0.88417   0.00000  Uiso   1.00
O1686  O     0.26421   0.93863   0.73742   0.00000  Uiso   1.00
C1687  C     0.33204   0.73277   0.85164   0.00000  Uiso   1.00
C1688  C     0.28924   0.92291   0.94144   0.00000  Uiso   1.00
C1689  C     0.28313   0.72944   0.85441   0.00000  Uiso   1.00
O1690  O     0.30785   0.74467   0.92660   0.00000  Uiso   1.00
C1691  C     0.39832   0.91964   0.90647   0.00000  Uiso   1.00
H1692  H     0.25121   0.81747   0.93164   0.00000  Uiso   1.00
H1693  H     0.32770   0.88010   0.90912   0.00000  Uiso   1.00
C1694  C     0.34367   0.75702   0.73676   0.00000  Uiso   1.00
C1695  C     0.54084   0.83576   0.95724   0.00000  Uiso   1.00
H1696  H     0.52292   0.83123   0.88917   0.00000  Uiso   1.00
C1697  C     0.38506   0.93004   0.93360   0.00000  Uiso   1.00
O1698  O     0.43856   0.88272   0.73306   0.00000  Uiso   1.00
H1699  H     0.44938   0.73138   0.85419   0.00000  Uiso   1.00
C1700  C     0.27372   0.87307   0.94398   0.00000  Uiso   1.00
H1701  H     0.51287   0.94301   0.74201   0.00000  Uiso   1.00
H1702  H     0.51493   0.80682   0.91680   0.00000  Uiso   1.00
H1703  H     0.36852   0.89087   0.95172   0.00000  Uiso   1.00
H1704  H     0.38206   0.91038   0.89349   0.00000  Uiso   1.00
O1705  O     0.46906   0.94055   0.90279   0.00000  Uiso   1.00
N1706  N     0.24787   0.83606   0.72153   0.00000  Uiso   1.00
C1707  C     0.25880   0.73547   0.93049   0.00000  Uiso   1.00
H1708  H     0.36921   0.81537   0.95078   0.00000  Uiso   1.00
H1709  H     0.41339   0.90418   0.90969   0.00000  Uiso   1.00
H1710  H     0.22705   0.83230   0.88069   0.00000  Uiso   1.00
C1711  C     0.21554   0.83929   0.89830   0.00000  Uiso   1.00
H1712  H     0.34794   0.93696   0.91174   0.00000  Uiso   1.00
C1713  C     0.42956   0.94095   0.82380   0.00000  Uiso   1.00
H1714  H     0.37285   0.82756   0.89835   0.00000  Uiso   1.00
C1715  C     0.39978   0.91425   0.73485   0.00000  Uiso   1.00
H1716  H     0.30712   0.92085   0.92912   0.00000  Uiso   1.00
H1717  H     0.35008   0.95476   0.80564   0.00000  Uiso   1.00
H1718  H     0.53547   0.75775   0.74106   0.00000  Uiso   1.00
H1719  H     0.53173   0.81180   0.85292   0.00000  Uiso   1.00
C1720  C     0.29210   0.82679   0.92584   0.00000  Uiso   1.00
H1721  H     0.34501   0.77926   0.92357   0.00000  Uiso   1.00
C1722  C     0.23726   0.71720   0.93300   0.00000  Uiso   1.00
C1723  C     0.53682   0.79388   0.83965   0.00000  Uiso   1.00
H1724  H     0.28174   0.94388   0.93737   0.00000  Uiso   1.00
C1725  C     0.47420   0.95998   0.82037   0.00000  Uiso   1.00
H1726  H     0.52834   0.79213   0.72966   0.00000  Uiso   1.00
H1727  H     0.40334   0.89474   0.95756   0.00000  Uiso   1.00
H1728  H     0.23672   0.93159   0.93422   0.00000  Uiso   1.00
C1729  C     0.42479   0.95162   0.96271   0.00000  Uiso   1.00
C1730  C     0.42010   0.90032   0.71873   0.00000  Uiso   1.00
H1731  H     0.25421   0.86267   0.94953   0.00000  Uiso   1.00
C1732  C     0.50306   0.72219   0.90052   0.00000  Uiso   1.00
C1733  C     0.53661   0.91755   0.71485   0.00000  Uiso   1.00
O1734  O     0.23328   0.73851   0.75497   0.00000  Uiso   1.00
C1735  C     0.40220   0.95364   0.94613   0.00000  Uiso   1.00
H1736  H     0.52541   0.91372   0.75757   0.00000  Uiso   1.00
C1737  C     0.35732   0.83457   0.95098   0.00000  Uiso   1.00
C1738  C     0.54245   0.85168   0.80753   0.00000  Uiso   1.00
C1739  C     0.53757   0.74465   0.82771   0.00000  Uiso   1.00
H1740  H     0.53949   0.78358   0.95111   0.00000  Uiso   1.00
C1741  C     0.38510   0.90681   0.95534   0.00000  Uiso   1.00
O1742  O     0.21737   0.78020   0.71765   0.00000  Uiso   1.00
O1743  O     0.53751   0.71756   0.83398   0.00000  Uiso   1.00
C1744  C     0.54668   0.79920   0.81318   0.00000  Uiso   1.00
H1745  H     0.54594   0.73365   0.78763   0.00000  Uiso   1.00
C1746  C     0.54680   0.77806   0.79461   0.00000  Uiso   1.00
H1747  H     0.33418   0.96065   0.84917   0.00000  Uiso   1.00
C1748  C     0.36611   0.71787   0.72502   0.00000  Uiso   1.00
H1749  H     0.28503   0.87319   0.96380   0.00000  Uiso   1.00
H1750  H     0.29540   0.92303   0.96217   0.00000  Uiso   1.00
H1751  H     0.25798   0.86816   1.01834   0.00000  Uiso   1.00
C1752  C     0.39340   0.91501   1.03921   0.00000  Uiso   1.00
C1753  C     0.34900   0.87976   1.04132   0.00000  Uiso   1.00
C1754  C     0.41539   0.93282   1.04290   0.00000  Uiso   1.00
C1755  C     0.30991   0.72239   1.05251   0.00000  Uiso   1.00
H1756  H     0.32795   0.74654   0.98030   0.00000  Uiso   1.00
C1757  C     0.39832   0.88807   1.12269   0.00000  Uiso   1.00
C1758  C     0.42992   0.85157   1.02695   0.00000  Uiso   1.00
C1759  C     0.23812   0.80786   1.15283   0.00000  Uiso   1.00
C1760  C     0.42600   0.72685   0.97342   0.00000  Uiso   1.00
H1761  H     0.52538   0.87513   1.03573   0.00000  Uiso   1.00
H1762  H     0.34095   0.83541   0.96699   0.00000  Uiso   1.00
C1763  C     0.53169   0.74559   0.99895   0.00000  Uiso   1.00
H1764  H     0.28030   0.84403   1.10130   0.00000  Uiso   1.00
C1765  C     0.40137   0.71491   1.01344   0.00000  Uiso   1.00
C1766  C     0.27975   0.93954   1.10187   0.00000  Uiso   1.00
C1767  C     0.27383   0.86354   1.06050   0.00000  Uiso   1.00
H1768  H     0.34277   0.75337   1.05759   0.00000  Uiso   1.00
H1769  H     0.27269   0.77953   0.99406   0.00000  Uiso   1.00
C1770  C     0.39266   0.90745   1.14871   0.00000  Uiso   1.00
C1771  C     0.29085   0.75016   1.01708   0.00000  Uiso   1.00
H1772  H     0.35333   0.77093   0.99026   0.00000  Uiso   1.00
C1773  C     0.41299   0.74183   1.07513   0.00000  Uiso   1.00
O1774  O     0.53978   0.74807   1.16454   0.00000  Uiso   1.00
C1775  C     0.22514   0.81270   1.17736   0.00000  Uiso   1.00
C1776  C     0.40424   0.94604   1.20660   0.00000  Uiso   1.00
H1777  H     0.54590   0.92891   1.12501   0.00000  Uiso   1.00
N1778  N     0.22761   0.84403   1.11726   0.00000  Uiso   1.00
C1779  C     0.42558   0.71745   1.06144   0.00000  Uiso   1.00
C1780  C     0.32686   0.86254   1.04550   0.00000  Uiso   1.00
O1781  O     0.46286   0.94088   1.04841   0.00000  Uiso   1.00
H1782  H     0.54086   0.76312   0.98924   0.00000  Uiso   1.00
C1783  C     0.21949   0.96131   1.02630   0.00000  Uiso   1.00
H1784  H     0.48326   0.76438   1.06582   0.00000  Uiso   1.00
C1785  C     0.24486   0.74549   1.00349   0.00000  Uiso   1.00
C1786  C     0.32006   0.79044   1.03333   0.00000  Uiso   1.00
H1787  H     0.30930   0.79159   1.05255   0.00000  Uiso   1.00
H1788  H     0.41797   0.74194   1.09710   0.00000  Uiso   1.00
H1789  H     0.23565   0.88557   1.06303   0.00000  Uiso   1.00
C1790  C     0.24809   0.95076   1.03360   0.00000  Uiso   1.00
H1791  H     0.39064   0.73940   1.07424   0.00000  Uiso   1.00
C1792  C     0.26905   0.75896   1.00211   0.00000  Uiso   1.00
H1793  H     0.31811   0.94087   1.05109   0.00000  Uiso   1.00
C1794  C     0.31918   0.76213   1.02171   0.00000  Uiso   1.00
C1795  C     0.50652   0.94413   1.07135   0.00000  Uiso   1.00
C1796  C     0.39772   0.88689   1.03591   0.00000  Uiso   1.00
H1797  H     0.46748   0.75127   1.21374   0.00000  Uiso   1.00
H1798  H     0.34149   0.79966   1.03296   0.00000  Uiso   1.00
C1799  C     0.33331   0.74217   1.03940   0.00000  Uiso   1.00
H1800  H     0.29341   0.92293   1.11095   0.00000  Uiso   1.00
C1801  C     0.38475   0.93507   1.13776   0.00000  Uiso   1.00
H1802  H     0.45551   0.77920   1.04845   0.00000  Uiso   1.00
H1803  H     0.49433   0.78833   0.98221   0.00000  Uiso   1.00
H1804  H     0.32861   0.84031   1.04845   0.00000  Uiso   1.00
C1805  C     0.48182   0.78922   1.00262   0.00000  Uiso   1.00
H1806  H     0.30843   0.80341   1.01908   0.00000  Uiso   1.00
C1807  C     0.26114   0.85080   1.03345   0.00000  Uiso   1.00
C1808  C     0.33174   0.76472   0.99257   0.00000  Uiso   1.00
C1809  C     0.23399   0.79516   1.19954   0.00000  Uiso   1.00
C1810  C     0.31931   0.91830   1.04819   0.00000  Uiso   1.00
C1811  C     0.25800   0.76627   1.16660   0.00000  Uiso   1.00
H1812  H     0.32037   0.77988   0.98119   0.00000  Uiso   1.00
H1813  H     0.40904   0.89903   1.10599   0.00000  Uiso   1.00
C1814  C     0.42495   0.87820   1.03302   0.00000  Uiso   1.00
C1815  C     0.27986   0.73803   1.13495   0.00000  Uiso   1.00
C1816  C     0.40127   0.71976   0.98511   0.00000  Uiso   1.00
C1817  C     0.29674   0.90148   1.05099   0.00000  Uiso   1.00
C1818  C     0.36698   0.94423   1.11739   0.00000  Uiso   1.00
H1819  H     0.26616   0.91514   1.01308   0.00000  Uiso   1.00
H1820  H     0.23260   0.90779   1.02982   0.00000  Uiso   1.00
H1821  H     0.29296   0.82517   1.07410   0.00000  Uiso   1.00
H1822  H     0.37928   0.91393   0.97565   0.00000  Uiso   1.00
H1823  H     0.37344   0.90239   1.18658   0.00000  Uiso   1.00
C1824  C     0.24855   0.77132   1.19337   0.00000  Uiso   1.00
H1825  H     0.37979   0.87805   1.11624   0.00000  Uiso   1.00
H1826  H     0.41775   0.76062   1.06439   0.00000  Uiso   1.00
C1827  C     0.48821   0.92831   1.05494   0.00000  Uiso   1.00
H1828  H     0.35062   0.89241   1.15805   0.00000  Uiso   1.00
C1829  C     0.29199   0.71429   1.12591   0.00000  Uiso   1.00
H1830  H     0.41192   0.87110   1.12994   0.00000  Uiso   1.00
H1831  H     0.48806   0.72616   1.20223   0.00000  Uiso   1.00
H1832  H     0.37842   0.87158   1.16633   0.00000  Uiso   1.00
H1833  H     0.43588   0.91123   1.15758   0.00000  Uiso   1.00
C1834  C     0.45099   0.95618   1.20456   0.00000  Uiso   1.00
H1835  H     0.47892   0.81012   1.00775   0.00000  Uiso   1.00
C1836  C     0.41596   0.91309   1.16700   0.00000  Uiso   1.00
O1837  O     0.27266   0.74132   1.16110   0.00000  Uiso   1.00
C1838  C     0.47346   0.76473   1.04562   0.00000  Uiso   1.00
C1839  C     0.25254   0.78521   1.14625   0.00000  Uiso   1.00
C1840  C     0.49482   0.77383   1.02516   0.00000  Uiso   1.00
C1841  C     0.44817   0.73056   0.98981   0.00000  Uiso   1.00
C1842  C     0.44212   0.92241   1.04291   0.00000  Uiso   1.00
H1843  H     0.27335   0.83567   1.02081   0.00000  Uiso   1.00
C1844  C     0.28737   0.75363   1.08895   0.00000  Uiso   1.00
C1845  C     0.27656   0.75875   1.11536   0.00000  Uiso   1.00
C1846  C     0.44690   0.73042   1.01809   0.00000  Uiso   1.00
C1847  C     0.25258   0.92030   1.03028   0.00000  Uiso   1.00
C1848  C     0.26888   0.91184   1.05663   0.00000  Uiso   1.00
C1849  C     0.25650   0.88751   1.06911   0.00000  Uiso   1.00
H1850  H     0.41731   0.89782   1.18308   0.00000  Uiso   1.00
H1851  H     0.23742   0.91207   0.96512   0.00000  Uiso   1.00
C1852  C     0.51512   0.79444   1.03814   0.00000  Uiso   1.00
H1853  H     0.28029   0.76897   1.07372   0.00000  Uiso   1.00
C1854  C     0.27554   0.83894   1.07979   0.00000  Uiso   1.00
H1855  H     0.25784   0.88649   1.09172   0.00000  Uiso   1.00
O1856  O     0.26251   0.78266   1.11997   0.00000  Uiso   1.00
H1857  H     0.46828   0.73606   0.98177   0.00000  Uiso   1.00
C1858  C     0.44738   0.89442   1.04019   0.00000  Uiso   1.00
C1859  C     0.23273   0.82742   1.13347   0.00000  Uiso   1.00
C1860  C     0.49617   0.72614   1.02708   0.00000  Uiso   1.00
C1861  C     0.49297   0.90106   1.04846   0.00000  Uiso   1.00
O1862  O     0.37542   0.86912   1.03566   0.00000  Uiso   1.00
O1863  O     0.47293   0.88284   1.04197   0.00000  Uiso   1.00
H1864  H     0.46266   0.78210   0.99662   0.00000  Uiso   1.00
H1865  H     0.35449   0.92907   1.10691   0.00000  Uiso   1.00
C1866  C     0.41253   0.94350   1.17614   0.00000  Uiso   1.00
O1867  O     0.36773   0.92638   1.04277   0.00000  Uiso   1.00
C1868  C     0.30172   0.87418   1.05248   0.00000  Uiso   1.00
H1869  H     0.29099   0.95838   1.01737   0.00000  Uiso   1.00
C1870  C     0.34560   0.90812   1.04394   0.00000  Uiso   1.00
C1871  C     0.26816   0.93609   1.07648   0.00000  Uiso   1.00
N1872  N     0.34116   0.95388   1.18668   0.00000  Uiso   1.00
H1873  H     0.34771   0.72970   1.03040   0.00000  Uiso   1.00
H1874  H     0.25761   0.82583   1.07716   0.00000  Uiso   1.00
C1875  C     0.24176   0.71977   1.01605   0.00000  Uiso   1.00
H1876  H     0.24072   0.84192   1.03783   0.00000  Uiso   1.00
N1877  N     0.43398   0.82902   1.02309   0.00000  Uiso   1.00
C1878  C     0.37142   0.89263   1.16664   0.00000  Uiso   1.00
C1879  C     0.53992   0.90897   1.05962   0.00000  Uiso   1.00
C1880  C     0.50953   0.74819   1.01694   0.00000  Uiso   1.00
H1881  H     0.44699   0.90383   1.20879   0.00000  Uiso   1.00
C1882  C     0.45788   0.71816   1.06409   0.00000  Uiso   1.00
H1883  H     0.43335   0.93133   0.96935   0.00000  Uiso   1.00
N1884  N     0.52506   0.94749   1.00951   0.00000  Uiso   1.00
H1885  H     0.50558   0.81330   1.04219   0.00000  Uiso   1.00
C1886  C     0.29906   0.73038   1.08066   0.00000  Uiso   1.00
C1887  C     0.46935   0.73445   1.03991   0.00000  Uiso   1.00
C1888  C     0.51939   0.89321   1.04794   0.00000  Uiso   1.00
O1889  O     0.22308   0.75898   0.99201   0.00000  Uiso   1.00
C1890  C     0.44133   0.95680   1.17674   0.00000  Uiso   1.00
C1891  C     0.25493   0.95728   1.06422   0.00000  Uiso   1.00
H1892  H     0.46353   0.72730   1.08292   0.00000  Uiso   1.00
C1893  C     0.53305   0.93294   1.07315   0.00000  Uiso   1.00
C1894  C     0.42279   0.72042   1.02987   0.00000  Uiso   1.00
H1895  H     0.53370   0.96104   1.11847   0.00000  Uiso   1.00
H1896  H     0.52702   0.78768   1.05667   0.00000  Uiso   1.00
N1897  N     0.54271   0.80275   1.12416   0.00000  Uiso   1.00
C1898  C     0.54143   0.71983   0.99067   0.00000  Uiso   1.00
H1899  H     0.53160   0.79982   1.02353   0.00000  Uiso   1.00
C1900  C     0.53986   0.71933   1.17161   0.00000  Uiso   1.00
C1901  C     0.28718   0.72555   1.03250   0.00000  Uiso   1.00
H1902  H     0.21601   0.96066   1.00379   0.00000  Uiso   1.00
H1903  H     0.52462   0.82454   0.96713   0.00000  Uiso   1.00
C1904  C     0.39524   0.95525   1.15518   0.00000  Uiso   1.00
C1905  C     0.41259   0.96029   1.04746   0.00000  Uiso   1.00
C1906  C     0.25752   0.75441   1.21288   0.00000  Uiso   1.00
O1907  O     0.36288   1.16127   0.39783   0.00000  Uiso   1.00
H1908  H     0.22895   1.03650   0.29309   0.00000  Uiso   1.00
C1909  C     0.37725   1.19379   0.27948   0.00000  Uiso   1.00
H1910  H     0.22880   1.14716   0.32698   0.00000  Uiso   1.00
C1911  C     0.23480   1.08747   0.31989   0.00000  Uiso   1.00
C1912  C     0.22515   0.98381   0.38817   0.00000  Uiso   1.00
C1913  C     0.34781   1.10125   0.27508   0.00000  Uiso   1.00
C1914  C     0.37138   1.01808   0.40304   0.00000  Uiso   1.00
C1915  C     0.43526   1.17302   0.42940   0.00000  Uiso   1.00
H1916  H     0.28289   1.07776   0.42155   0.00000  Uiso   1.00
C1917  C     0.47097   1.14149   0.44637   0.00000  Uiso   1.00
H1918  H     0.23195   1.03186   0.33097   0.00000  Uiso   1.00
H1919  H     0.32009   1.19342   0.28496   0.00000  Uiso   1.00
H1920  H     0.32737   1.09100   0.26990   0.00000  Uiso   1.00
H1921  H     0.48656   0.96535   0.22995   0.00000  Uiso   1.00
H1922  H     0.33398   0.99984   0.41799   0.00000  Uiso   1.00
H1923  H     0.50115   1.00926   0.24281   0.00000  Uiso   1.00
H1924  H     0.49490   1.07895   0.27486   0.00000  Uiso   1.00
H1925  H     0.26120   1.15695   0.44501   0.00000  Uiso   1.00
C1926  C     0.48117   0.99842   0.42990   0.00000  Uiso   1.00
C1927  C     0.28610   1.17016   0.36099   0.00000  Uiso   1.00
O1928  O     0.47976   0.97542   0.41488   0.00000  Uiso   1.00
C1929  C     0.48998   1.02793   0.24770   0.00000  Uiso   1.00
C1930  C     0.41692   1.06159   0.34773   0.00000  Uiso   1.00
H1931  H     0.46295   1.11945   0.40904   0.00000  Uiso   1.00
H1932  H     0.42143   1.19392   0.23774   0.00000  Uiso   1.00
C1933  C     0.44731   0.98204   0.33179   0.00000  Uiso   1.00
C1934  C     0.36084   1.16279   0.44651   0.00000  Uiso   1.00
H1935  H     0.50479   0.97125   0.27056   0.00000  Uiso   1.00
C1936  C     0.25641   1.12335   0.34974   0.00000  Uiso   1.00
N1937  N     0.34250   1.11358   0.44802   0.00000  Uiso   1.00
H1938  H     0.42953   1.19457   0.42862   0.00000  Uiso   1.00
C1939  C     0.54606   1.01372   0.34435   0.00000  Uiso   1.00
C1940  C     0.35394   1.02245   0.44756   0.00000  Uiso   1.00
O1941  O     0.47869   1.07145   0.42181   0.00000  Uiso   1.00
H1942  H     0.47762   1.06855   0.30591   0.00000  Uiso   1.00
H1943  H     0.54039   1.15263   0.28987   0.00000  Uiso   1.00
N1944  N     0.46123   1.08829   0.36031   0.00000  Uiso   1.00
H1945  H     0.45699   1.16377   0.23157   0.00000  Uiso   1.00
H1946  H     0.41001   1.14252   0.30569   0.00000  Uiso   1.00
H1947  H     0.32706   1.09687   0.38914   0.00000  Uiso   1.00
C1948  C     0.28084   1.03843   0.25369   0.00000  Uiso   1.00
C1949  C     0.44160   1.07615   0.35409   0.00000  Uiso   1.00
H1950  H     0.41847   1.04906   0.44474   0.00000  Uiso   1.00
C1951  C     0.35983   1.17363   0.29683   0.00000  Uiso   1.00
H1952  H     0.53436   0.99119   0.26440   0.00000  Uiso   1.00
C1953  C     0.26654   1.07617   0.36166   0.00000  Uiso   1.00
C1954  C     0.36980   1.08734   0.28744   0.00000  Uiso   1.00
H1955  H     0.22918   1.10514   0.30880   0.00000  Uiso   1.00
C1956  C     0.39549   1.03178   0.41161   0.00000  Uiso   1.00
H1957  H     0.30256   1.16551   0.23853   0.00000  Uiso   1.00
H1958  H     0.45853   1.06961   0.27309   0.00000  Uiso   1.00
C1959  C     0.31977   1.15287   0.24438   0.00000  Uiso   1.00
C1960  C     0.25249   0.99824   0.25559   0.00000  Uiso   1.00
C1961  C     0.48080   1.02395   0.41730   0.00000  Uiso   1.00
C1962  C     0.21964   1.04072   0.31289   0.00000  Uiso   1.00
H1963  H     0.31599   1.08538   0.35419   0.00000  Uiso   1.00
H1964  H     0.41725   0.97500   0.24857   0.00000  Uiso   1.00
C1965  C     0.32112   1.14867   0.27585   0.00000  Uiso   1.00
C1966  C     0.47743   1.02564   0.38894   0.00000  Uiso   1.00
H1967  H     0.41975   1.12991   0.22441   0.00000  Uiso   1.00
O1968  O     0.41535   1.04087   0.39294   0.00000  Uiso   1.00
H1969  H     0.31758   1.06320   0.38439   0.00000  Uiso   1.00
H1970  H     0.36026   1.14194   0.34873   0.00000  Uiso   1.00
C1971  C     0.36778   1.14339   0.29047   0.00000  Uiso   1.00
H1972  H     0.25602   0.98616   0.33740   0.00000  Uiso   1.00
H1973  H     0.29688   1.12700   0.30821   0.00000  Uiso   1.00
C1974  C     0.28340   1.09378   0.37975   0.00000  Uiso   1.00
C1975  C     0.39333   1.13066   0.29605   0.00000  Uiso   1.00
H1976  H     0.48737   0.97501   0.34713   0.00000  Uiso   1.00
C1977  C     0.28038   1.09637   0.41069   0.00000  Uiso   1.00
N1978  N     0.29633   1.05444   0.26200   0.00000  Uiso   1.00
H1979  H     0.53474   1.03207   0.27136   0.00000  Uiso   1.00
C1980  C     0.37076   1.17501   0.37384   0.00000  Uiso   1.00
C1981  C     0.34585   1.12887   0.27975   0.00000  Uiso   1.00
C1982  C     0.26242   1.02025   0.24221   0.00000  Uiso   1.00
O1983  O     0.25769   1.19368   0.32748   0.00000  Uiso   1.00
C1984  C     0.35228   1.01012   0.42265   0.00000  Uiso   1.00
C1985  C     0.25307   1.02714   0.21559   0.00000  Uiso   1.00
C1986  C     0.32959   1.17435   0.29217   0.00000  Uiso   1.00
C1987  C     0.38340   1.20197   0.37440   0.00000  Uiso   1.00
H1988  H     0.27828   1.06781   0.34496   0.00000  Uiso   1.00
H1989  H     0.30728   1.14809   0.39031   0.00000  Uiso   1.00
C1990  C     0.24104   0.97357   0.32493   0.00000  Uiso   1.00
C1991  C     0.36870   1.18021   0.32608   0.00000  Uiso   1.00
C1992  C     0.36897   1.03447   0.33260   0.00000  Uiso   1.00
H1993  H     0.30178   1.04802   0.44639   0.00000  Uiso   1.00
H1994  H     0.30001   1.00214   0.45046   0.00000  Uiso   1.00
C1995  C     0.43091   0.99526   0.31171   0.00000  Uiso   1.00
H1996  H     0.25894   1.10284   0.41509   0.00000  Uiso   1.00
C1997  C     0.37880   1.03195   0.45687   0.00000  Uiso   1.00
C1998  C     0.36617   1.16288   0.34898   0.00000  Uiso   1.00
H1999  H     0.36801   1.20184   0.26056   0.00000  Uiso   1.00
C2000  C     0.34491   1.02274   0.32422   0.00000  Uiso   1.00
C2001  C     0.31260   1.08545   0.37677   0.00000  Uiso   1.00
C2002  C     0.51637   1.00298   0.30236   0.00000  Uiso   1.00
C2003  C     0.27830   1.12311   0.36767   0.00000  Uiso   1.00
H2004  H     0.53251   1.16038   0.35231   0.00000  Uiso   1.00
C2005  C     0.26266   1.17027   0.34344   0.00000  Uiso   1.00
C2006  C     0.35101   1.13567   0.44683   0.00000  Uiso   1.00
H2007  H     0.28842   1.11692   0.27445   0.00000  Uiso   1.00
O2008  O     0.36908   1.05893   0.29053   0.00000  Uiso   1.00
C2009  C     0.41196   1.19148   0.21786   0.00000  Uiso   1.00
C2010  C     0.24126   0.97331   0.29589   0.00000  Uiso   1.00
C2011  C     0.47109   1.01676   0.29371   0.00000  Uiso   1.00
C2012  C     0.39220   1.10269   0.29575   0.00000  Uiso   1.00
C2013  C     0.48279   1.04706   0.43321   0.00000  Uiso   1.00
O2014  O     0.36485   1.01475   0.37685   0.00000  Uiso   1.00
H2015  H     0.52437   1.04614   0.30355   0.00000  Uiso   1.00
C2016  C     0.44315   1.01393   0.29446   0.00000  Uiso   1.00
C2017  C     0.48727   0.99908   0.30957   0.00000  Uiso   1.00
N2018  N     0.32523   1.01249   0.31732   0.00000  Uiso   1.00
H2019  H     0.22431   1.11405   0.40009   0.00000  Uiso   1.00
H2020  H     0.27758   1.14930   0.28486   0.00000  Uiso   1.00
C2021  C     0.47957   1.06463   0.28284   0.00000  Uiso   1.00
H2022  H     0.46888   1.02686   0.23876   0.00000  Uiso   1.00
C2023  C     0.22215   0.97360   0.41738   0.00000  Uiso   1.00
H2024  H     0.33872   1.16424   0.23711   0.00000  Uiso   1.00
C2025  C     0.23508   0.97924   0.24013   0.00000  Uiso   1.00
H2026  H     0.24877   0.99978   0.44215   0.00000  Uiso   1.00
C2027  C     0.47223   1.11932   0.42921   0.00000  Uiso   1.00
H2028  H     0.24736   0.98103   0.38205   0.00000  Uiso   1.00
H2029  H     0.27340   1.18665   0.41197   0.00000  Uiso   1.00
O2030  O     0.53784   1.17914   0.24323   0.00000  Uiso   1.00
C2031  C     0.39974   1.03530   0.43940   0.00000  Uiso   1.00
C2032  C     0.49018   1.03616   0.27775   0.00000  Uiso   1.00
C2033  C     0.24342   1.09454   0.34872   0.00000  Uiso   1.00
O2034  O     0.25961   0.99097   0.28329   0.00000  Uiso   1.00
C2035  C     0.24636   0.98014   0.43566   0.00000  Uiso   1.00
H2036  H     0.22710   1.15323   0.45733   0.00000  Uiso   1.00
H2037  H     0.47707   1.17949   0.40268   0.00000  Uiso   1.00
C2038  C     0.24712   1.14728   0.33915   0.00000  Uiso   1.00
C2039  C     0.47521   0.98251   0.32974   0.00000  Uiso   1.00
C2040  C     0.40488   1.06772   0.32333   0.00000  Uiso   1.00
C2041  C     0.38149   1.05343   0.31525   0.00000  Uiso   1.00
H2042  H     0.25800   1.05731   0.37154   0.00000  Uiso   1.00
H2043  H     0.43316   1.09233   0.23196   0.00000  Uiso   1.00
H2044  H     0.49999   1.04372   0.23583   0.00000  Uiso   1.00
C2045  C     0.48189   1.18579   0.42287   0.00000  Uiso   1.00
C2046  C     0.51885   1.03100   0.28832   0.00000  Uiso   1.00
H2047  H     0.29622   1.11289   0.41944   0.00000  Uiso   1.00
C2048  C     0.21761   1.08914   0.36472   0.00000  Uiso   1.00
C2049  C     0.29439   1.13458   0.28626   0.00000  Uiso   1.00
C2050  C     0.29205   1.14601   0.37426   0.00000  Uiso   1.00
C2051  C     0.40474   1.04297   0.36607   0.00000  Uiso   1.00
C2052  C     0.36692   1.17589   0.42193   0.00000  Uiso   1.00
C2053  C     0.38061   1.03019   0.35859   0.00000  Uiso   1.00
N2054  N     0.47423   1.02774   0.36545   0.00000  Uiso   1.00
H2055  H     0.25092   1.07807   0.30680   0.00000  Uiso   1.00
H2056  H     0.43351   1.16500   0.40815   0.00000  Uiso   1.00
O2057  O     0.41456   1.08800   0.30699   0.00000  Uiso   1.00
H2058  H     0.43059   1.02461   0.27981   0.00000  Uiso   1.00
H2059  H     0.24453   0.96977   0.45539   0.00000  Uiso   1.00
H2060  H     0.47761   1.20812   0.42174   0.00000  Uiso   1.00
C2061  C     0.46234   1.17058   0.44237   0.00000  Uiso   1.00
O2062  O     0.40404   0.98753   0.30732   0.00000  Uiso   1.00
N2063  N     0.54199   1.05568   0.43100   0.00000  Uiso   1.00
O2064  O     0.30202   1.19201   0.36677   0.00000  Uiso   1.00
H2065  H     0.44345   1.06045   0.22788   0.00000  Uiso   1.00
H2066  H     0.30310   1.20115   0.42064   0.00000  Uiso   1.00
H2067  H     0.50395   1.18194   0.42547   0.00000  Uiso   1.00
C2068  C     0.48053   1.09418   0.43883   0.00000  Uiso   1.00
C2069  C     0.28251   1.20658   0.41862   0.00000  Uiso   1.00
H2070  H     0.39462   1.18212   0.27341   0.00000  Uiso   1.00
H2071  H     0.32062   1.17056   0.31323   0.00000  Uiso   1.00
H2072  H     0.53792   1.03365   0.34542   0.00000  Uiso   1.00
C2073  C     0.37490   1.20321   0.42230   0.00000  Uiso   1.00
C2074  C     0.38020   1.20668   0.32660   0.00000  Uiso   1.00
C2075  C     0.53736   0.99633   0.32324   0.00000  Uiso   1.00
C2076  C     0.52218   0.98078   0.28103   0.00000  Uiso   1.00
C2077  C     0.54042   1.19447   0.21977   0.00000  Uiso   1.00
H2078  H     0.42013   1.15897   0.44008   0.00000  Uiso   1.00
H2079  H     0.31940   1.13497   0.23149   0.00000  Uiso   1.00
C2080  C     0.48373   0.99605   0.45945   0.00000  Uiso   1.00
H2081  H     0.46855   1.08629   0.22592   0.00000  Uiso   1.00
C2082  C     0.44826   1.08116   0.21936   0.00000  Uiso   1.00
C2083  C     0.54609   0.96963   0.32032   0.00000  Uiso   1.00
H2084  H     0.42697   1.21133   0.28620   0.00000  Uiso   1.00
H2085  H     0.24329   1.10431   0.46067   0.00000  Uiso   1.00
H2086  H     0.26586   0.97477   0.42742   0.00000  Uiso   1.00
H2087  H     0.22020   1.00556   0.38438   0.00000  Uiso   1.00
C2088  C     0.22729   1.20454   0.46159   0.00000  Uiso   1.00
N2089  N     0.35535   0.96542   0.26557   0.00000  Uiso   1.00
C2090  C     0.48988   1.04509   0.46128   0.00000  Uiso   1.00
C2091  C     0.24805   1.15765   0.46260   0.00000  Uiso   1.00
H2092  H     0.39066   1.18538   0.22310   0.00000  Uiso   1.00
C2093  C     0.35555   1.18065   0.60750   0.00000  Uiso   1.00
H2094  H     0.30445   0.96594   0.63922   0.00000  Uiso   1.00
C2095  C     0.51827   1.11644   0.59484   0.00000  Uiso   1.00
C2096  C     0.42846   1.00845   0.53923   0.00000  Uiso   1.00
C2097  C     0.31173   1.00124   0.46921   0.00000  Uiso   1.00
C2098  C     0.33141   1.04422   0.59686   0.00000  Uiso   1.00
C2099  C     0.36906   1.01608   0.60903   0.00000  Uiso   1.00
C2100  C     0.37289   1.07055   0.48969   0.00000  Uiso   1.00
H2101  H     0.34430   1.14779   0.66989   0.00000  Uiso   1.00
H2102  H     0.35939   1.20030   0.61608   0.00000  Uiso   1.00
C2103  C     0.23357   0.99077   0.57272   0.00000  Uiso   1.00
H2104  H     0.42977   1.01721   0.67590   0.00000  Uiso   1.00
N2105  N     0.26354   1.11926   0.63944   0.00000  Uiso   1.00
C2106  C     0.23749   1.17200   0.60417   0.00000  Uiso   1.00
C2107  C     0.23463   1.19833   0.52513   0.00000  Uiso   1.00
C2108  C     0.53737   0.97533   0.52606   0.00000  Uiso   1.00
C2109  C     0.43510   1.09753   0.61256   0.00000  Uiso   1.00
H2110  H     0.43791   1.07432   0.54939   0.00000  Uiso   1.00
C2111  C     0.30087   1.03136   0.55865   0.00000  Uiso   1.00
O2112  O     0.50021   0.97928   0.64168   0.00000  Uiso   1.00
H2113  H     0.39262   1.13674   0.64699   0.00000  Uiso   1.00
C2114  C     0.46736   1.16479   0.57606   0.00000  Uiso   1.00
O2115  O     0.23467   1.03892   0.58688   0.00000  Uiso   1.00
O2116  O     0.43409   1.06531   0.64959   0.00000  Uiso   1.00
H2117  H     0.33361   0.98548   0.62814   0.00000  Uiso   1.00
H2118  H     0.30387   1.01685   0.68144   0.00000  Uiso   1.00
O2119  O     0.43604   1.12641   0.57424   0.00000  Uiso   1.00
N2120  N     0.38923   1.01390   0.62211   0.00000  Uiso   1.00
H2121  H     0.35336   1.18290   0.66929   0.00000  Uiso   1.00
C2122  C     0.46173   1.07555   0.68879   0.00000  Uiso   1.00
N2123  N     0.25891   1.03822   0.70247   0.00000  Uiso   1.00
H2124  H     0.50822   1.10795   0.57652   0.00000  Uiso   1.00
C2125  C     0.45972   1.00720   0.58483   0.00000  Uiso   1.00
C2126  C     0.30902   1.12342   0.58615   0.00000  Uiso   1.00
N2127  N     0.49419   1.01855   0.52726   0.00000  Uiso   1.00
H2128  H     0.33415   1.01473   0.70220   0.00000  Uiso   1.00
C2129  C     0.46027   1.13896   0.61582   0.00000  Uiso   1.00
H2130  H     0.37107   0.98680   0.65692   0.00000  Uiso   1.00
C2131  C     0.28866   1.13567   0.48249   0.00000  Uiso   1.00
C2132  C     0.48747   1.18044   0.53460   0.00000  Uiso   1.00
H2133  H     0.33612   1.02942   0.66916   0.00000  Uiso   1.00
C2134  C     0.43883   1.03255   0.55089   0.00000  Uiso   1.00
H2135  H     0.29345   1.18806   0.46831   0.00000  Uiso   1.00
C2136  C     0.33794   1.00193   0.57339   0.00000  Uiso   1.00
C2137  C     0.43070   1.05723   0.53806   0.00000  Uiso   1.00
C2138  C     0.48426   1.02758   0.62231   0.00000  Uiso   1.00
C2139  C     0.31536   1.00635   0.55650   0.00000  Uiso   1.00
H2140  H     0.29461   1.12998   0.57027   0.00000  Uiso   1.00
C2141  C     0.23478   1.05592   0.66000   0.00000  Uiso   1.00
C2142  C     0.25067   1.15280   0.51190   0.00000  Uiso   1.00
H2143  H     0.37017   1.11326   0.51684   0.00000  Uiso   1.00
C2144  C     0.34359   1.13680   0.61752   0.00000  Uiso   1.00
H2145  H     0.46525   1.20427   0.47183   0.00000  Uiso   1.00
N2146  N     0.39789   1.06830   0.58997   0.00000  Uiso   1.00
O2147  O     0.45454   1.03241   0.57547   0.00000  Uiso   1.00
C2148  C     0.33350   1.18314   0.56205   0.00000  Uiso   1.00
C2149  C     0.35778   1.16043   0.62970   0.00000  Uiso   1.00
C2150  C     0.44268   1.09118   0.63979   0.00000  Uiso   1.00
C2151  C     0.46596   1.13384   0.64295   0.00000  Uiso   1.00
H2152  H     0.43725   1.13723   0.51890   0.00000  Uiso   1.00
O2153  O     0.46441   1.10285   0.68116   0.00000  Uiso   1.00
O2154  O     0.24118   1.15157   0.58467   0.00000  Uiso   1.00
C2155  C     0.47919   1.16631   0.48930   0.00000  Uiso   1.00
C2156  C     0.24719   0.97375   0.62410   0.00000  Uiso   1.00
C2157  C     0.34962   1.17995   0.51636   0.00000  Uiso   1.00
C2158  C     0.40090   1.03331   0.50674   0.00000  Uiso   1.00
C2159  C     0.47556   1.00465   0.60851   0.00000  Uiso   1.00
C2160  C     0.38900   1.15451   0.63368   0.00000  Uiso   1.00
C2161  C     0.32524   1.14387   0.59790   0.00000  Uiso   1.00
C2162  C     0.40966   1.00849   0.51758   0.00000  Uiso   1.00
H2163  H     0.22852   0.99742   0.55133   0.00000  Uiso   1.00
O2164  O     0.30844   0.98777   0.53618   0.00000  Uiso   1.00
C2165  C     0.23152   1.18897   0.55191   0.00000  Uiso   1.00
C2166  C     0.45160   1.14876   0.53232   0.00000  Uiso   1.00
C2167  C     0.36097   0.97627   0.67462   0.00000  Uiso   1.00
C2168  C     0.44285   1.03159   0.68606   0.00000  Uiso   1.00
C2169  C     0.23063   1.05387   0.61092   0.00000  Uiso   1.00
H2170  H     0.37182   1.17829   0.59331   0.00000  Uiso   1.00
C2171  C     0.48334   0.97900   0.61774   0.00000  Uiso   1.00
C2172  C     0.41149   1.05724   0.51696   0.00000  Uiso   1.00
C2173  C     0.48358   1.15059   0.65740   0.00000  Uiso   1.00
C2174  C     0.44467   1.12082   0.60054   0.00000  Uiso   1.00
C2175  C     0.31421   1.09631   0.59108   0.00000  Uiso   1.00
H2176  H     0.34560   1.14606   0.54528   0.00000  Uiso   1.00
C2177  C     0.23958   1.04250   0.63622   0.00000  Uiso   1.00
O2178  O     0.29873   1.07601   0.57710   0.00000  Uiso   1.00
O2179  O     0.34150   1.06214   0.61522   0.00000  Uiso   1.00
H2180  H     0.43947   1.17797   0.47891   0.00000  Uiso   1.00
C2181  C     0.23840   1.00977   0.59302   0.00000  Uiso   1.00
C2182  C     0.33452   1.08865   0.60979   0.00000  Uiso   1.00
C2183  C     0.30924   1.04908   0.57923   0.00000  Uiso   1.00
N2184  N     0.26272   1.04272   0.52524   0.00000  Uiso   1.00
N2185  N     0.49877   1.16401   0.66838   0.00000  Uiso   1.00
C2186  C     0.48357   1.18353   0.56292   0.00000  Uiso   1.00
H2187  H     0.49639   1.11292   0.50342   0.00000  Uiso   1.00
C2188  C     0.32604   1.01315   0.68156   0.00000  Uiso   1.00
H2189  H     0.51057   1.19389   0.47339   0.00000  Uiso   1.00
H2190  H     0.54629   1.13000   0.63529   0.00000  Uiso   1.00
C2191  C     0.28051   1.03737   0.54012   0.00000  Uiso   1.00
C2192  C     0.34555   1.02010   0.59382   0.00000  Uiso   1.00
H2193  H     0.51445   1.13782   0.59548   0.00000  Uiso   1.00
C2194  C     0.41485   1.08151   0.60022   0.00000  Uiso   1.00
C2195  C     0.44512   1.05785   0.67467   0.00000  Uiso   1.00
C2196  C     0.24048   1.16211   0.55877   0.00000  Uiso   1.00
H2197  H     0.53326   1.09975   0.67810   0.00000  Uiso   1.00
H2198  H     0.37690   1.09093   0.54473   0.00000  Uiso   1.00
H2199  H     0.50850   1.10671   0.61333   0.00000  Uiso   1.00
C2200  C     0.23505   1.18293   0.65249   0.00000  Uiso   1.00
N2201  N     0.49179   1.04666   0.63324   0.00000  Uiso   1.00
C2202  C     0.32697   0.96531   0.53273   0.00000  Uiso   1.00
H2203  H     0.28787   1.18973   0.59434   0.00000  Uiso   1.00
C2204  C     0.45769   1.10934   0.65444   0.00000  Uiso   1.00
H2205  H     0.29720   1.12506   0.50019   0.00000  Uiso   1.00
C2206  C     0.50869   1.19547   0.51680   0.00000  Uiso   1.00
O2207  O     0.25493   1.01893   0.63861   0.00000  Uiso   1.00
O2208  O     0.46771   1.16316   0.60453   0.00000  Uiso   1.00
H2209  H     0.35355   1.07488   0.50099   0.00000  Uiso   1.00
H2210  H     0.31001   1.20063   0.62068   0.00000  Uiso   1.00
C2211  C     0.33121   0.98391   0.67284   0.00000  Uiso   1.00
C2212  C     0.34339   1.16704   0.65735   0.00000  Uiso   1.00
N2213  N     0.53431   0.98205   0.50395   0.00000  Uiso   1.00
C2214  C     0.34631   1.10943   0.62476   0.00000  Uiso   1.00
C2215  C     0.24749   1.00094   0.61837   0.00000  Uiso   1.00
C2216  C     0.46002   0.97427   0.70346   0.00000  Uiso   1.00
C2217  C     0.24446   1.17975   0.50627   0.00000  Uiso   1.00
H2218  H     0.25207   1.12173   0.54095   0.00000  Uiso   1.00
O2219  O     0.35385   0.97913   0.57233   0.00000  Uiso   1.00
C2220  C     0.46963   1.16524   0.51954   0.00000  Uiso   1.00
H2221  H     0.35968   1.10629   0.64260   0.00000  Uiso   1.00
O2222  O     0.23859   1.17285   0.67964   0.00000  Uiso   1.00
C2223  C     0.24780   1.18713   0.47705   0.00000  Uiso   1.00
C2224  C     0.33307   1.02355   0.46815   0.00000  Uiso   1.00
C2225  C     0.38660   1.10150   0.52744   0.00000  Uiso   1.00
C2226  C     0.37601   1.03925   0.48788   0.00000  Uiso   1.00
H2227  H     0.43575   1.09746   0.49641   0.00000  Uiso   1.00
H2228  H     0.53452   1.20346   0.55160   0.00000  Uiso   1.00
H2229  H     0.35497   1.00169   0.49916   0.00000  Uiso   1.00
C2230  C     0.45010   1.14718   0.56104   0.00000  Uiso   1.00
H2231  H     0.33607   1.03100   0.50840   0.00000  Uiso   1.00
C2232  C     0.35016   1.20858   0.51472   0.00000  Uiso   1.00
H2233  H     0.29177   1.12000   0.46680   0.00000  Uiso   1.00
H2234  H     0.30697   1.00185   0.63613   0.00000  Uiso   1.00
C2235  C     0.24926   1.14394   0.53911   0.00000  Uiso   1.00
H2236  H     0.39889   1.15344   0.61364   0.00000  Uiso   1.00
C2237  C     0.34309   1.16809   0.54070   0.00000  Uiso   1.00
C2238  C     0.24445   1.11052   0.48324   0.00000  Uiso   1.00
H2239  H     0.40275   1.11524   0.53481   0.00000  Uiso   1.00
C2240  C     0.49081   1.01934   0.50395   0.00000  Uiso   1.00
C2241  C     0.24263   1.16546   0.63148   0.00000  Uiso   1.00
C2242  C     0.24724   1.04553   0.68399   0.00000  Uiso   1.00
H2243  H     0.32288   1.17208   0.65593   0.00000  Uiso   1.00
O2244  O     0.49497   1.06756   0.47873   0.00000  Uiso   1.00
H2245  H     0.44206   0.97022   0.69205   0.00000  Uiso   1.00
C2246  C     0.23853   1.19381   0.69940   0.00000  Uiso   1.00
O2247  O     0.22099   1.20629   0.57132   0.00000  Uiso   1.00
C2248  C     0.45120   0.98275   0.57203   0.00000  Uiso   1.00
H2249  H     0.41023   1.11267   0.47702   0.00000  Uiso   1.00
C2250  C     0.32917   1.17436   0.59135   0.00000  Uiso   1.00
H2251  H     0.49630   1.19626   0.57394   0.00000  Uiso   1.00
C2252  C     0.39677   1.08172   0.50505   0.00000  Uiso   1.00
O2253  O     0.43210   0.98318   0.55052   0.00000  Uiso   1.00
H2254  H     0.29968   1.05181   0.48293   0.00000  Uiso   1.00
C2255  C     0.25792   1.13833   0.48525   0.00000  Uiso   1.00
C2256  C     0.25372   1.14040   0.63653   0.00000  Uiso   1.00
C2257  C     0.45477   1.02398   0.71038   0.00000  Uiso   1.00
C2258  C     0.22743   1.20943   0.64618   0.00000  Uiso   1.00
C2259  C     0.32733   1.21064   0.55877   0.00000  Uiso   1.00
C2260  C     0.30811   1.19611   0.59980   0.00000  Uiso   1.00
H2261  H     0.39762   1.17254   0.64570   0.00000  Uiso   1.00
H2262  H     0.30122   1.15278   0.47766   0.00000  Uiso   1.00
C2263  C     0.50708   1.17984   0.49069   0.00000  Uiso   1.00
H2264  H     0.47679   0.98149   0.68852   0.00000  Uiso   1.00
O2265  O     0.35696   1.16412   0.49443   0.00000  Uiso   1.00
C2266  C     0.48989   1.11498   0.48239   0.00000  Uiso   1.00
H2267  H     0.25374   1.09560   0.49624   0.00000  Uiso   1.00
H2268  H     0.36799   1.07946   0.46988   0.00000  Uiso   1.00
H2269  H     0.29872   1.00475   0.48632   0.00000  Uiso   1.00
C2270  C     0.46038   1.18214   0.47130   0.00000  Uiso   1.00
H2271  H     0.40290   0.99016   0.50790   0.00000  Uiso   1.00
O2272  O     0.54180   1.01470   0.56451   0.00000  Uiso   1.00
H2273  H     0.52186   1.16429   0.48891   0.00000  Uiso   1.00
H2274  H     0.52134   0.96775   0.69064   0.00000  Uiso   1.00
C2275  C     0.31898   0.98321   0.64386   0.00000  Uiso   1.00
C2276  C     0.35025   1.02326   0.49388   0.00000  Uiso   1.00
H2277  H     0.37067   0.98470   0.69302   0.00000  Uiso   1.00
H2278  H     0.25447   0.96565   0.64354   0.00000  Uiso   1.00
C2279  C     0.36544   1.20607   0.46994   0.00000  Uiso   1.00
H2280  H     0.54079   1.17076   0.53621   0.00000  Uiso   1.00
C2281  C     0.54613   0.98802   0.57233   0.00000  Uiso   1.00
C2282  C     0.22766   1.19820   0.59909   0.00000  Uiso   1.00
C2283  C     0.48735   1.02075   0.47411   0.00000  Uiso   1.00
C2284  C     0.41695   1.09446   0.48654   0.00000  Uiso   1.00
C2285  C     0.47537   1.06872   0.71312   0.00000  Uiso   1.00
C2286  C     0.48018   1.13970   0.47300   0.00000  Uiso   1.00
C2287  C     0.48908   1.09201   0.46598   0.00000  Uiso   1.00
C2288  C     0.53600   1.19289   0.53247   0.00000  Uiso   1.00
H2289  H     0.35675   1.07262   0.70965   0.00000  Uiso   1.00
C2290  C     0.27529   1.20244   0.47087   0.00000  Uiso   1.00
H2291  H     0.31985   0.98053   0.46933   0.00000  Uiso   1.00
H2292  H     0.28225   0.97910   0.71004   0.00000  Uiso   1.00
H2293  H     0.42203   1.07865   0.47093   0.00000  Uiso   1.00
C2294  C     0.36200   1.17721   0.47091   0.00000  Uiso   1.00
C2295  C     0.21619   1.07786   0.66098   0.00000  Uiso   1.00
C2296  C     0.54167   0.96805   0.55337   0.00000  Uiso   1.00
H2297  H     0.53724   1.06552   0.55835   0.00000  Uiso   1.00
O2298  O     0.48319   0.97109   0.47237   0.00000  Uiso   1.00
C2299  C     0.21655   1.07691   0.61105   0.00000  Uiso   1.00
H2300  H     0.22303   1.11098   0.48958   0.00000  Uiso   1.00
H2301  H     0.40373   1.07509   0.71007   0.00000  Uiso   1.00
H2302  H     0.32376   1.06936   0.46475   0.00000  Uiso   1.00
C2303  C     0.31379   1.04926   0.46500   0.00000  Uiso   1.00
H2304  H     0.45556   1.15655   0.90686   0.00000  Uiso   1.00
C2305  C     0.33458   1.00106   0.95991   0.00000  Uiso   1.00
O2306  O     0.31831   1.20939   0.87950   0.00000  Uiso   1.00
C2307  C     0.33614   1.16560   0.86228   0.00000  Uiso   1.00
O2308  O     0.43693   0.99004   0.81760   0.00000  Uiso   1.00
C2309  C     0.35737   1.08867   0.91121   0.00000  Uiso   1.00
C2310  C     0.44573   0.96442   0.82084   0.00000  Uiso   1.00
C2311  C     0.33845   1.01383   0.86701   0.00000  Uiso   1.00
H2312  H     0.34988   1.02855   0.87924   0.00000  Uiso   1.00
C2313  C     0.32965   1.03308   0.78098   0.00000  Uiso   1.00
H2314  H     0.32221   1.18174   0.80987   0.00000  Uiso   1.00
C2315  C     0.28832   1.01186   0.94472   0.00000  Uiso   1.00
O2316  O     0.49886   1.19329   0.78673   0.00000  Uiso   1.00
C2317  C     0.36645   0.98199   0.89322   0.00000  Uiso   1.00
H2318  H     0.49385   1.04591   0.82661   0.00000  Uiso   1.00
C2319  C     0.38391   1.09364   0.92809   0.00000  Uiso   1.00
H2320  H     0.40664   1.10428   0.73306   0.00000  Uiso   1.00
C2321  C     0.36115   1.20656   0.85247   0.00000  Uiso   1.00
H2322  H     0.42190   1.07325   0.74161   0.00000  Uiso   1.00
C2323  C     0.51839   1.08934   0.91234   0.00000  Uiso   1.00
H2324  H     0.43677   1.13297   0.88932   0.00000  Uiso   1.00
H2325  H     0.39897   1.05340   0.91242   0.00000  Uiso   1.00
N2326  N     0.23176   1.05465   0.87384   0.00000  Uiso   1.00
C2327  C     0.23053   1.10562   0.95787   0.00000  Uiso   1.00
C2328  C     0.39126   1.18423   0.91374   0.00000  Uiso   1.00
C2329  C     0.35684   1.08315   0.81857   0.00000  Uiso   1.00
C2330  C     0.37804   1.08796   0.77427   0.00000  Uiso   1.00
C2331  C     0.51010   1.04161   0.75904   0.00000  Uiso   1.00
N2332  N     0.29342   1.14233   0.88054   0.00000  Uiso   1.00
C2333  C     0.47979   1.06296   0.81897   0.00000  Uiso   1.00
H2334  H     0.32144   1.04463   0.79916   0.00000  Uiso   1.00
H2335  H     0.50180   1.17601   0.87227   0.00000  Uiso   1.00
C2336  C     0.36373   1.07191   0.79288   0.00000  Uiso   1.00
H2337  H     0.31914   1.02204   0.86173   0.00000  Uiso   1.00
H2338  H     0.37856   1.16919   0.90448   0.00000  Uiso   1.00
C2339  C     0.38936   1.11280   0.78256   0.00000  Uiso   1.00
C2340  C     0.50800   1.06407   0.90890   0.00000  Uiso   1.00
C2341  C     0.40530   1.07432   0.91580   0.00000  Uiso   1.00
C2342  C     0.35885   1.04296   0.78137   0.00000  Uiso   1.00
C2343  C     0.37884   1.07338   0.74680   0.00000  Uiso   1.00
C2344  C     0.37251   1.04315   0.75134   0.00000  Uiso   1.00
C2345  C     0.49177   1.15686   0.74440   0.00000  Uiso   1.00
H2346  H     0.52960   1.09328   0.79993   0.00000  Uiso   1.00
C2347  C     0.48254   1.03142   0.74933   0.00000  Uiso   1.00
H2348  H     0.41423   1.03045   0.79959   0.00000  Uiso   1.00
C2349  C     0.36434   0.97536   0.92403   0.00000  Uiso   1.00
H2350  H     0.36487   1.08730   0.88921   0.00000  Uiso   1.00
C2351  C     0.26381   1.14319   0.81294   0.00000  Uiso   1.00
H2352  H     0.46240   1.15241   0.83185   0.00000  Uiso   1.00
C2353  C     0.46700   1.09112   0.77951   0.00000  Uiso   1.00
C2354  C     0.51765   1.16281   0.75467   0.00000  Uiso   1.00
C2355  C     0.48414   1.06237   0.89327   0.00000  Uiso   1.00
H2356  H     0.47790   1.10748   0.79057   0.00000  Uiso   1.00
H2357  H     0.31739   1.04128   0.76519   0.00000  Uiso   1.00
C2358  C     0.39172   0.97915   0.93945   0.00000  Uiso   1.00
O2359  O     0.51991   1.04108   0.92058   0.00000  Uiso   1.00
C2360  C     0.50824   1.06219   0.77790   0.00000  Uiso   1.00
H2361  H     0.49723   0.99303   0.73167   0.00000  Uiso   1.00
H2362  H     0.41294   1.17854   0.91213   0.00000  Uiso   1.00
C2363  C     0.25150   1.18533   0.79473   0.00000  Uiso   1.00
C2364  C     0.33650   0.98776   0.88499   0.00000  Uiso   1.00
H2365  H     0.40923   1.08297   0.89564   0.00000  Uiso   1.00
H2366  H     0.44101   1.16635   0.87488   0.00000  Uiso   1.00
H2367  H     0.27634   1.12470   0.81008   0.00000  Uiso   1.00
C2368  C     0.40479   1.00294   0.94608   0.00000  Uiso   1.00
C2369  C     0.47994   1.00125   0.74223   0.00000  Uiso   1.00
H2370  H     0.44499   1.09346   0.78184   0.00000  Uiso   1.00
C2371  C     0.30294   1.17312   0.93926   0.00000  Uiso   1.00
C2372  C     0.53468   1.03518   0.74837   0.00000  Uiso   1.00
C2373  C     0.36458   0.97167   0.80461   0.00000  Uiso   1.00
H2374  H     0.41623   1.12101   0.92995   0.00000  Uiso   1.00
H2375  H     0.27333   1.13789   0.74732   0.00000  Uiso   1.00
C2376  C     0.25074   1.20913   0.74479   0.00000  Uiso   1.00
C2377  C     0.48289   1.01395   0.90162   0.00000  Uiso   1.00
C2378  C     0.32026   1.16534   0.79441   0.00000  Uiso   1.00
C2379  C     0.23077   1.18235   0.92263   0.00000  Uiso   1.00
C2380  C     0.38235   1.13584   0.95618   0.00000  Uiso   1.00
C2381  C     0.29447   1.16722   0.77736   0.00000  Uiso   1.00
N2382  N     0.50520   1.00221   0.81462   0.00000  Uiso   1.00
H2383  H     0.35028   1.06883   0.91578   0.00000  Uiso   1.00
C2384  C     0.26917   1.16404   0.79609   0.00000  Uiso   1.00
N2385  N     0.42377   0.98689   0.87248   0.00000  Uiso   1.00
C2386  C     0.29735   1.00485   0.91746   0.00000  Uiso   1.00
C2387  C     0.46695   1.13239   0.84269   0.00000  Uiso   1.00
C2388  C     0.38113   1.12323   0.80656   0.00000  Uiso   1.00
C2389  C     0.50523   1.21299   0.80624   0.00000  Uiso   1.00
H2390  H     0.30436   1.20781   0.78230   0.00000  Uiso   1.00
C2391  C     0.53178   1.07698   0.78529   0.00000  Uiso   1.00
H2392  H     0.38889   1.13267   0.90882   0.00000  Uiso   1.00
O2393  O     0.39038   1.14942   0.81330   0.00000  Uiso   1.00
H2394  H     0.35742   1.03412   0.73793   0.00000  Uiso   1.00
C2395  C     0.47067   0.98862   0.89635   0.00000  Uiso   1.00
C2396  C     0.23884   1.14332   0.82845   0.00000  Uiso   1.00
H2397  H     0.46654   1.02343   0.79189   0.00000  Uiso   1.00
C2398  C     0.37112   1.01813   0.79471   0.00000  Uiso   1.00
C2399  C     0.29432   1.14501   0.75474   0.00000  Uiso   1.00
H2400  H     0.30515   1.14987   0.73587   0.00000  Uiso   1.00
H2401  H     0.32105   1.14448   0.80394   0.00000  Uiso   1.00
C2402  C     0.48438   1.10990   0.88330   0.00000  Uiso   1.00
H2403  H     0.47893   0.98854   0.76143   0.00000  Uiso   1.00
C2404  C     0.31277   1.15321   0.87310   0.00000  Uiso   1.00
H2405  H     0.33704   1.16619   0.77901   0.00000  Uiso   1.00
H2406  H     0.44816   1.11926   0.83997   0.00000  Uiso   1.00
C2407  C     0.22900   1.18857   0.81053   0.00000  Uiso   1.00
H2408  H     0.34472   1.07189   0.83414   0.00000  Uiso   1.00
C2409  C     0.38100   1.21100   0.95781   0.00000  Uiso   1.00
C2410  C     0.35403   0.99546   0.79517   0.00000  Uiso   1.00
C2411  C     0.22051   1.16611   0.82534   0.00000  Uiso   1.00
C2412  C     0.52170   1.18214   0.77447   0.00000  Uiso   1.00
C2413  C     0.26251   1.20608   0.77298   0.00000  Uiso   1.00
H2414  H     0.44427   1.03986   0.77062   0.00000  Uiso   1.00
C2415  C     0.35223   1.17503   0.94431   0.00000  Uiso   1.00
C2416  C     0.50713   1.11272   0.89921   0.00000  Uiso   1.00
C2417  C     0.33899   1.19403   0.86561   0.00000  Uiso   1.00
C2418  C     0.34090   0.99258   0.93353   0.00000  Uiso   1.00
C2419  C     0.35436   1.15020   0.84771   0.00000  Uiso   1.00
H2420  H     0.28183   0.99717   0.79561   0.00000  Uiso   1.00
C2421  C     0.37345   1.16340   0.83131   0.00000  Uiso   1.00
C2422  C     0.51783   0.99276   0.92709   0.00000  Uiso   1.00
H2423  H     0.29937   0.99870   0.75093   0.00000  Uiso   1.00
C2424  C     0.50291   1.15299   0.87384   0.00000  Uiso   1.00
C2425  C     0.47143   1.08418   0.88219   0.00000  Uiso   1.00
O2426  O     0.27926   1.18600   0.93078   0.00000  Uiso   1.00
C2427  C     0.32891   1.13385   0.95465   0.00000  Uiso   1.00
H2428  H     0.35013   1.01209   0.84662   0.00000  Uiso   1.00
C2429  C     0.32595   1.00342   0.78582   0.00000  Uiso   1.00
C2430  C     0.29214   1.19609   0.76803   0.00000  Uiso   1.00
H2431  H     0.33284   1.07702   0.73509   0.00000  Uiso   1.00
H2432  H     0.40221   1.12440   0.76855   0.00000  Uiso   1.00
N2433  N     0.22960   0.97243   0.79079   0.00000  Uiso   1.00
H2434  H     0.48486   1.12289   0.83264   0.00000  Uiso   1.00
H2435  H     0.34251   1.10413   0.91604   0.00000  Uiso   1.00
C2436  C     0.30234   0.99465   0.80501   0.00000  Uiso   1.00
O2437  O     0.27971   1.13024   0.94837   0.00000  Uiso   1.00
C2438  C     0.52025   1.14205   0.89818   0.00000  Uiso   1.00
O2439  O     0.35217   1.12162   0.84796   0.00000  Uiso   1.00
H2440  H     0.47289   1.09751   0.75942   0.00000  Uiso   1.00
H2441  H     0.42285   1.07509   0.92801   0.00000  Uiso   1.00
H2442  H     0.37738   1.00123   0.89217   0.00000  Uiso   1.00
C2443  C     0.45466   0.99743   0.72389   0.00000  Uiso   1.00
C2444  C     0.30343   1.14607   0.94801   0.00000  Uiso   1.00
C2445  C     0.45118   1.14904   0.88647   0.00000  Uiso   1.00
C2446  C     0.48260   0.96484   0.90741   0.00000  Uiso   1.00
C2447  C     0.47908   1.06454   0.78805   0.00000  Uiso   1.00
C2448  C     0.39286   1.12286   0.92922   0.00000  Uiso   1.00
C2449  C     0.36253   1.10970   0.82403   0.00000  Uiso   1.00
H2450  H     0.45220   1.08348   0.87270   0.00000  Uiso   1.00
C2451  C     0.46606   1.03825   0.77534   0.00000  Uiso   1.00
H2452  H     0.24297   1.16789   0.73547   0.00000  Uiso   1.00
H2453  H     0.48777   1.08127   0.82892   0.00000  Uiso   1.00
H2454  H     0.45872   1.05751   0.82452   0.00000  Uiso   1.00
C2455  C     0.24412   1.18892   0.72650   0.00000  Uiso   1.00
C2456  C     0.47569   1.13805   0.87123   0.00000  Uiso   1.00
H2457  H     0.39055   1.02993   0.75257   0.00000  Uiso   1.00
C2458  C     0.44527   0.98751   0.88357   0.00000  Uiso   1.00
H2459  H     0.30308   1.12652   0.76235   0.00000  Uiso   1.00
C2460  C     0.39836   1.01636   0.80298   0.00000  Uiso   1.00
C2461  C     0.47119   1.04288   0.72379   0.00000  Uiso   1.00
H2462  H     0.30218   1.00501   0.82482   0.00000  Uiso   1.00
H2463  H     0.51279   1.14886   0.85409   0.00000  Uiso   1.00
C2464  C     0.25441   1.17109   0.93204   0.00000  Uiso   1.00
C2465  C     0.40994   0.99139   0.81297   0.00000  Uiso   1.00
C2466  C     0.50685   1.01618   0.91648   0.00000  Uiso   1.00
O2467  O     0.47075   1.03715   0.88975   0.00000  Uiso   1.00
C2468  C     0.54694   1.19234   0.77896   0.00000  Uiso   1.00
C2469  C     0.25521   1.14408   0.94108   0.00000  Uiso   1.00
C2470  C     0.31873   0.98998   0.75848   0.00000  Uiso   1.00
C2471  C     0.23049   1.13029   0.94430   0.00000  Uiso   1.00
C2472  C     0.50560   0.96704   0.92349   0.00000  Uiso   1.00
H2473  H     0.33368   0.99449   0.74468   0.00000  Uiso   1.00
C2474  C     0.51717   1.21307   0.94648   0.00000  Uiso   1.00
C2475  C     0.35378   1.08394   0.72846   0.00000  Uiso   1.00
H2476  H     0.48327   1.15092   0.94273   0.00000  Uiso   1.00
C2477  C     0.51841   1.16190   0.92130   0.00000  Uiso   1.00
N2478  N     0.46957   1.15304   0.73585   0.00000  Uiso   1.00
H2479  H     0.42245   1.00470   0.75436   0.00000  Uiso   1.00
H2480  H     0.35433   1.10593   0.72736   0.00000  Uiso   1.00
C2481  C     0.21626   1.07162   0.87135   0.00000  Uiso   1.00
O2482  O     0.53572   1.12977   0.72223   0.00000  Uiso   1.00
C2483  C     0.32736   1.18798   0.94100   0.00000  Uiso   1.00
O2484  O     0.23165   1.11901   0.84248   0.00000  Uiso   1.00
H2485  H     0.44938   1.21003   0.87137   0.00000  Uiso   1.00
C2486  C     0.54045   0.99547   0.94434   0.00000  Uiso   1.00
H2487  H     0.37605   0.96693   0.87875   0.00000  Uiso   1.00
H2488  H     0.28196   1.00782   0.90176   0.00000  Uiso   1.00
C2489  C     0.42896   0.99020   0.73889   0.00000  Uiso   1.00
H2490  H     0.21761   1.20794   0.81019   0.00000  Uiso   1.00
C2491  C     0.32321   0.99594   0.91147   0.00000  Uiso   1.00
C2492  C     0.40472   1.08160   0.73173   0.00000  Uiso   1.00
H2493  H     0.40839   0.98819   0.72592   0.00000  Uiso   1.00
C2494  C     0.49753   1.16878   0.93831   0.00000  Uiso   1.00
C2495  C     0.37700   1.19052   0.83385   0.00000  Uiso   1.00
O2496  O     0.26230   1.02105   0.95011   0.00000  Uiso   1.00
H2497  H     0.29916   1.20292   0.74737   0.00000  Uiso   1.00
H2498  H     0.40051   1.02265   0.93648   0.00000  Uiso   1.00
C2499  C     0.39307   1.20315   0.81474   0.00000  Uiso   1.00
C2500  C     0.49127   0.98328   0.81726   0.00000  Uiso   1.00
H2501  H     0.53584   1.01759   0.73316   0.00000  Uiso   1.00
H2502  H     0.32783   1.21026   0.93562   0.00000  Uiso   1.00
C2503  C     0.38187   1.18431   0.94386   0.00000  Uiso   1.00
H2504  H     0.46509   1.20670   0.82196   0.00000  Uiso   1.00
H2505  H     0.48980   1.08270   0.72318   0.00000  Uiso   1.00
H2506  H     0.33161   1.11356   0.96027   0.00000  Uiso   1.00
C2507  C     0.35340   1.14707   0.95089   0.00000  Uiso   1.00
H2508  H     0.43037   0.97077   0.74987   0.00000  Uiso   1.00
H2509  H     0.30192   0.97365   0.85787   0.00000  Uiso   1.00
C2510  C     0.39636   1.16346   0.96309   0.00000  Uiso   1.00
H2511  H     0.30381   0.97221   0.80887   0.00000  Uiso   1.00
H2512  H     0.54710   1.19249   0.86252   0.00000  Uiso   1.00
C2513  C     0.49630   1.19315   0.95118   0.00000  Uiso   1.00
C2514  C     0.38121   1.08931   0.95854   0.00000  Uiso   1.00
H2515  H     0.37211   1.04582   0.95778   0.00000  Uiso   1.00
C2516  C     0.54062   1.20438   0.93274   0.00000  Uiso   1.00
H2517  H     0.53663   1.09200   0.92615   0.00000  Uiso   1.00
C2518  C     0.53969   1.14877   0.74351   0.00000  Uiso   1.00
C2519  C     0.42978   1.00085   0.96103   0.00000  Uiso   1.00
C2520  C     0.39138   0.96819   0.81528   0.00000  Uiso   1.00
C2521  C     0.32142   0.96508   0.86745   0.00000  Uiso   1.00
H2522  H     0.38750   1.20336   0.90303   0.00000  Uiso   1.00
C2523  C     0.54018   1.17993   0.91895   0.00000  Uiso   1.00
C2524  C     0.23186   1.20975   0.91303   0.00000  Uiso   1.00
H2525  H     0.31523   0.96812   0.75976   0.00000  Uiso   1.00
H2526  H     0.41902   1.16154   0.96131   0.00000  Uiso   1.00
C2527  C     0.35705   1.00947   1.04649   0.00000  Uiso   1.00
H2528  H     0.51294   1.16685   1.09581   0.00000  Uiso   1.00
C2529  C     0.38407   1.11044   1.00250   0.00000  Uiso   1.00
H2530  H     0.21635   0.98244   1.03299   0.00000  Uiso   1.00
C2531  C     0.28910   1.14849   1.07673   0.00000  Uiso   1.00
C2532  C     0.29946   1.04241   1.13560   0.00000  Uiso   1.00
O2533  O     0.52689   1.06858   0.99468   0.00000  Uiso   1.00
C2534  C     0.41538   1.14750   1.15813   0.00000  Uiso   1.00
H2535  H     0.36098   1.11822   1.16105   0.00000  Uiso   1.00
C2536  C     0.24732   1.04341   1.02949   0.00000  Uiso   1.00
N2537  N     0.49089   1.06076   1.09998   0.00000  Uiso   1.00
C2538  C     0.36258   1.18428   1.04629   0.00000  Uiso   1.00
H2539  H     0.47307   1.20057   1.04341   0.00000  Uiso   1.00
H2540  H     0.52858   1.16420   1.01561   0.00000  Uiso   1.00
O2541  O     0.29371   0.96802   1.13802   0.00000  Uiso   1.00
C2542  C     0.22962   1.08541   1.18313   0.00000  Uiso   1.00
O2543  O     0.24267   1.05443   1.05605   0.00000  Uiso   1.00
C2544  C     0.37825   1.08484   1.01443   0.00000  Uiso   1.00
H2545  H     0.39890   1.12930   1.12307   0.00000  Uiso   1.00
C2546  C     0.35803   1.00556   1.07600   0.00000  Uiso   1.00
C2547  C     0.27311   1.03869   1.02266   0.00000  Uiso   1.00
H2548  H     0.23724   1.13268   1.13875   0.00000  Uiso   1.00
C2549  C     0.48878   1.18383   1.03838   0.00000  Uiso   1.00
C2550  C     0.47874   0.99847   0.98880   0.00000  Uiso   1.00
H2551  H     0.44636   1.10239   1.15349   0.00000  Uiso   1.00
C2552  C     0.39360   1.05386   1.19385   0.00000  Uiso   1.00
C2553  C     0.25720   1.02942   0.97718   0.00000  Uiso   1.00
H2554  H     0.40458   0.99830   1.15964   0.00000  Uiso   1.00
C2555  C     0.23022   1.03072   0.98427   0.00000  Uiso   1.00
H2556  H     0.29906   1.13659   1.05912   0.00000  Uiso   1.00
C2557  C     0.36562   1.03391   1.03519   0.00000  Uiso   1.00
H2558  H     0.28036   1.16009   1.13288   0.00000  Uiso   1.00
H2559  H     0.44317   1.03548   1.18135   0.00000  Uiso   1.00
C2560  C     0.23789   1.05857   1.18404   0.00000  Uiso   1.00
H2561  H     0.44214   0.97841   1.13811   0.00000  Uiso   1.00
C2562  C     0.23931   1.19293   1.09622   0.00000  Uiso   1.00
C2563  C     0.37441   1.06452   0.97001   0.00000  Uiso   1.00
C2564  C     0.38355   1.11201   0.97428   0.00000  Uiso   1.00
O2565  O     0.26865   1.01241   1.11137   0.00000  Uiso   1.00
H2566  H     0.38525   1.12782   1.01668   0.00000  Uiso   1.00
C2567  C     0.43996   0.97506   0.96993   0.00000  Uiso   1.00
C2568  C     0.37872   1.04882   1.08026   0.00000  Uiso   1.00
H2569  H     0.23871   1.14162   1.17400   0.00000  Uiso   1.00
C2570  C     0.31482   1.18177   1.10078   0.00000  Uiso   1.00
H2571  H     0.39663   0.96684   1.21156   0.00000  Uiso   1.00
C2572  C     0.52199   1.03602   1.13500   0.00000  Uiso   1.00
C2573  C     0.25093   1.18401   1.07214   0.00000  Uiso   1.00
C2574  C     0.39564   1.19857   1.07999   0.00000  Uiso   1.00
H2575  H     0.24297   0.99821   1.06554   0.00000  Uiso   1.00
H2576  H     0.34809   1.13810   1.07950   0.00000  Uiso   1.00
O2577  O     0.39575   1.17348   1.09180   0.00000  Uiso   1.00
H2578  H     0.33282   1.11447   1.10000   0.00000  Uiso   1.00
C2579  C     0.48998   0.98152   1.18846   0.00000  Uiso   1.00
C2580  C     0.45790   1.17076   1.20953   0.00000  Uiso   1.00
C2581  C     0.33390   0.97357   1.17661   0.00000  Uiso   1.00
C2582  C     0.36697   1.05192   1.18421   0.00000  Uiso   1.00
C2583  C     0.42081   1.19563   1.12871   0.00000  Uiso   1.00
C2584  C     0.40984   1.07691   1.18820   0.00000  Uiso   1.00
H2585  H     0.41333   1.21055   1.20784   0.00000  Uiso   1.00
C2586  C     0.33313   1.19528   1.11749   0.00000  Uiso   1.00
C2587  C     0.50612   0.99596   0.99891   0.00000  Uiso   1.00
C2588  C     0.25143   0.98199   1.07811   0.00000  Uiso   1.00
C2589  C     0.29917   1.19606   1.08192   0.00000  Uiso   1.00
O2590  O     0.48723   1.00335   1.14452   0.00000  Uiso   1.00
C2591  C     0.28833   1.01655   1.13059   0.00000  Uiso   1.00
C2592  C     0.37567   1.05533   1.05258   0.00000  Uiso   1.00
C2593  C     0.37089   1.02440   1.09213   0.00000  Uiso   1.00
H2594  H     0.29974   1.16954   1.02310   0.00000  Uiso   1.00
O2595  O     0.38015   1.08179   1.04239   0.00000  Uiso   1.00
C2596  C     0.44542   1.10819   1.17542   0.00000  Uiso   1.00
O2597  O     0.38094   1.01913   1.11818   0.00000  Uiso   1.00
C2598  C     0.28167   1.17964   1.03457   0.00000  Uiso   1.00
C2599  C     0.45340   1.05561   1.17638   0.00000  Uiso   1.00
H2600  H     0.39027   1.16775   0.98406   0.00000  Uiso   1.00
C2601  C     0.32209   0.99774   1.16335   0.00000  Uiso   1.00
H2602  H     0.39224   1.14414   1.20803   0.00000  Uiso   1.00
C2603  C     0.46864   1.02344   0.97955   0.00000  Uiso   1.00
C2604  C     0.52854   1.19975   1.12161   0.00000  Uiso   1.00
C2605  C     0.34714   0.98820   1.03159   0.00000  Uiso   1.00
H2606  H     0.27142   1.13728   1.08312   0.00000  Uiso   1.00
H2607  H     0.25900   1.12858   1.04033   0.00000  Uiso   1.00
N2608  N     0.34884   1.16854   1.03472   0.00000  Uiso   1.00
N2609  N     0.30993   1.05040   1.05711   0.00000  Uiso   1.00
H2610  H     0.25996   1.18684   0.98562   0.00000  Uiso   1.00
H2611  H     0.23203   1.07279   1.10161   0.00000  Uiso   1.00
N2612  N     0.28441   1.08626   1.11069   0.00000  Uiso   1.00
O2613  O     0.30516   1.02179   0.99139   0.00000  Uiso   1.00
C2614  C     0.37344   1.06177   0.99732   0.00000  Uiso   1.00
C2615  C     0.27791   1.03017   0.99701   0.00000  Uiso   1.00
N2616  N     0.39501   1.08685   1.11141   0.00000  Uiso   1.00
O2617  O     0.35008   0.97903   1.08549   0.00000  Uiso   1.00
C2618  C     0.37897   0.99214   1.12415   0.00000  Uiso   1.00
N2619  N     0.40955   0.98347   1.04903   0.00000  Uiso   1.00
O2620  O     0.25603   1.05350   1.20559   0.00000  Uiso   1.00
C2621  C     0.52405   1.15684   1.19416   0.00000  Uiso   1.00
C2622  C     0.30952   1.15105   1.10165   0.00000  Uiso   1.00
C2623  C     0.40641   1.14837   1.13273   0.00000  Uiso   1.00
H2624  H     0.24367   1.20880   1.00592   0.00000  Uiso   1.00
C2625  C     0.24373   1.18733   1.00019   0.00000  Uiso   1.00
C2626  C     0.35477   1.07528   1.17238   0.00000  Uiso   1.00
H2627  H     0.48990   1.17847   1.01643   0.00000  Uiso   1.00
C2628  C     0.51099   1.01607   1.15210   0.00000  Uiso   1.00
H2629  H     0.48236   1.16625   1.05051   0.00000  Uiso   1.00
H2630  H     0.45338   1.05908   1.15420   0.00000  Uiso   1.00
O2631  O     0.36768   1.03645   1.00662   0.00000  Uiso   1.00
H2632  H     0.47470   1.05414   1.18211   0.00000  Uiso   1.00
C2633  C     0.38784   1.06962   1.09695   0.00000  Uiso   1.00
H2634  H     0.53550   1.15360   1.04748   0.00000  Uiso   1.00
C2635  C     0.25318   1.17069   1.02528   0.00000  Uiso   1.00
C2636  C     0.32975   1.02461   1.16941   0.00000  Uiso   1.00
C2637  C     0.52676   1.00744   1.17409   0.00000  Uiso   1.00
C2638  C     0.47683   0.96753   1.20989   0.00000  Uiso   1.00
N2639  N     0.41567   1.20405   1.01281   0.00000  Uiso   1.00
C2640  C     0.29069   1.06613   1.12168   0.00000  Uiso   1.00
C2641  C     0.26637   0.98564   1.10179   0.00000  Uiso   1.00
H2642  H     0.34898   1.00057   0.97764   0.00000  Uiso   1.00
C2643  C     0.23887   1.00687   1.19963   0.00000  Uiso   1.00
H2644  H     0.22464   1.18037   0.99170   0.00000  Uiso   1.00
C2645  C     0.30014   0.99423   1.14525   0.00000  Uiso   1.00
O2646  O     0.51635   0.99133   1.19416   0.00000  Uiso   1.00
H2647  H     0.27116   0.98756   1.02099   0.00000  Uiso   1.00
C2648  C     0.36390   0.97189   1.10920   0.00000  Uiso   1.00
H2649  H     0.22963   1.13275   1.01869   0.00000  Uiso   1.00
C2650  C     0.39302   0.98263   1.14732   0.00000  Uiso   1.00
C2651  C     0.29353   1.04500   1.04177   0.00000  Uiso   1.00
C2652  C     0.33716   1.13668   1.09855   0.00000  Uiso   1.00
C2653  C     0.37000   1.10010   1.17155   0.00000  Uiso   1.00
C2654  C     0.41419   1.14089   1.20568   0.00000  Uiso   1.00
C2655  C     0.30941   1.01250   0.96549   0.00000  Uiso   1.00
C2656  C     0.22548   1.14023   1.15559   0.00000  Uiso   1.00
C2657  C     0.52475   1.20417   1.07269   0.00000  Uiso   1.00
H2658  H     0.35073   1.14204   1.11507   0.00000  Uiso   1.00
H2659  H     0.26580   1.13169   1.00607   0.00000  Uiso   1.00
O2660  O     0.52651   1.18472   1.14613   0.00000  Uiso   1.00
C2661  C     0.31859   1.04623   1.15590   0.00000  Uiso   1.00
O2662  O     0.32924   1.07370   1.16118   0.00000  Uiso   1.00
C2663  C     0.29783   1.14575   1.12948   0.00000  Uiso   1.00
H2664  H     0.31236   1.15120   1.14501   0.00000  Uiso   1.00
C2665  C     0.25149   1.14003   1.02128   0.00000  Uiso   1.00
C2666  C     0.39721   1.10108   1.18003   0.00000  Uiso   1.00
C2667  C     0.41777   1.12431   1.17958   0.00000  Uiso   1.00
C2668  C     0.42260   1.17173   1.17097   0.00000  Uiso   1.00
C2669  C     0.50533   1.05020   1.11583   0.00000  Uiso   1.00
C2670  C     0.40808   1.17303   1.11724   0.00000  Uiso   1.00
H2671  H     0.29073   1.12521   1.13450   0.00000  Uiso   1.00
C2672  C     0.28070   1.17580   1.06618   0.00000  Uiso   1.00
O2673  O     0.23266   1.01093   1.17092   0.00000  Uiso   1.00
C2674  C     0.42810   1.16847   1.20229   0.00000  Uiso   1.00
H2675  H     0.34600   1.18245   1.13060   0.00000  Uiso   1.00
C2676  C     0.23430   1.17864   1.04912   0.00000  Uiso   1.00
C2677  C     0.48532   1.04553   0.98396   0.00000  Uiso   1.00
C2678  C     0.53778   1.17160   1.03468   0.00000  Uiso   1.00
H2679  H     0.28372   1.20145   1.03141   0.00000  Uiso   1.00
C2680  C     0.53332   1.19826   1.17003   0.00000  Uiso   1.00
C2681  C     0.21744   1.06340   1.06259   0.00000  Uiso   1.00
C2682  C     0.52229   1.01910   1.00352   0.00000  Uiso   1.00
O2683  O     0.47475   1.19951   0.97027   0.00000  Uiso   1.00
C2684  C     0.22434   1.04047   1.01085   0.00000  Uiso   1.00
O2685  O     0.35229   1.02819   1.18637   0.00000  Uiso   1.00
H2686  H     0.46540   1.19084   1.20783   0.00000  Uiso   1.00
C2687  C     0.51672   0.96939   1.00433   0.00000  Uiso   1.00
H2688  H     0.26229   0.96504   0.99382   0.00000  Uiso   1.00
N2689  N     0.33808   0.96907   1.02083   0.00000  Uiso   1.00
C2690  C     0.51845   1.19587   1.04399   0.00000  Uiso   1.00
C2691  C     0.43977   1.07972   1.19068   0.00000  Uiso   1.00
H2692  H     0.40144   1.03403   1.19797   0.00000  Uiso   1.00
C2693  C     0.45194   0.97325   1.15751   0.00000  Uiso   1.00
C2694  C     0.51193   1.04388   0.99422   0.00000  Uiso   1.00
C2695  C     0.27925   0.96432   1.11473   0.00000  Uiso   1.00
H2696  H     0.46375   1.11890   1.18190   0.00000  Uiso   1.00
H2697  H     0.47125   1.15667   1.19903   0.00000  Uiso   1.00
H2698  H     0.23921   1.10134   1.19532   0.00000  Uiso   1.00
C2699  C     0.42706   1.19493   1.15635   0.00000  Uiso   1.00
O2700  O     0.46390   0.97400   0.98450   0.00000  Uiso   1.00
C2701  C     0.47656   1.07091   0.97404   0.00000  Uiso   1.00
H2702  H     0.25389   1.19698   1.11330   0.00000  Uiso   1.00
C2703  C     0.47739   0.98565   1.16302   0.00000  Uiso   1.00
C2704  C     0.53164   1.18354   1.19483   0.00000  Uiso   1.00
C2705  C     0.52280   1.18824   1.09629   0.00000  Uiso   1.00
C2706  C     0.37781   1.20451   1.05869   0.00000  Uiso   1.00
C2707  C     0.22626   1.03844   1.16714   0.00000  Uiso   1.00
N2708  N     0.22980   1.08408   0.96788   0.00000  Uiso   1.00
N2709  N     0.51737   1.13434   1.19293   0.00000  Uiso   1.00
H2710  H     0.22196   1.16162   1.15132   0.00000  Uiso   1.00
H2711  H     0.37387   1.21045   0.97971   0.00000  Uiso   1.00
C2712  C     0.26940   0.96554   1.01622   0.00000  Uiso   1.00
C2713  C     0.23045   0.98268   1.21299   0.00000  Uiso   1.00
N2714  N     0.46860   1.09237   0.96700   0.00000  Uiso   1.00
C2715  C     0.21548   0.96411   1.19900   0.00000  Uiso   1.00
H2716  H     0.50048   0.96600   1.07774   0.00000  Uiso   1.00
O2717  O     0.44369   1.02473   0.96826   0.00000  Uiso   1.00
C2718  C     0.79653   0.29382   0.32019   0.00000  Uiso   1.00
H2719  H     0.76798   0.25427   0.29262   0.00000  Uiso   1.00
H2720  H     0.57315   0.36387   0.24786   0.00000  Uiso   1.00
H2721  H     0.82520   0.26612   0.27336   0.00000  Uiso   1.00
H2722  H     0.60506   0.22100   0.37320   0.00000  Uiso   1.00
C2723  C     0.55138   0.43169   0.34544   0.00000  Uiso   1.00
C2724  C     0.84779   0.36180   0.27162   0.00000  Uiso   1.00
O2725  O     0.67736   0.33855   0.43412   0.00000  Uiso   1.00
H2726  H     0.66024   0.26537   0.36662   0.00000  Uiso   1.00
H2727  H     0.65692   0.23136   0.37308   0.00000  Uiso   1.00
H2728  H     0.71065   0.27868   0.38080   0.00000  Uiso   1.00
N2729  N     0.61645   0.40583   0.37236   0.00000  Uiso   1.00
O2730  O     0.66144   0.37132   0.34476   0.00000  Uiso   1.00
C2731  C     0.84854   0.29281   0.39028   0.00000  Uiso   1.00
H2732  H     0.85585   0.35184   0.29020   0.00000  Uiso   1.00
O2733  O     0.61984   0.39460   0.44124   0.00000  Uiso   1.00
C2734  C     0.81884   0.45918   0.45989   0.00000  Uiso   1.00
H2735  H     0.69102   0.31216   0.22114   0.00000  Uiso   1.00
C2736  C     0.62592   0.24927   0.34681   0.00000  Uiso   1.00
C2737  C     0.70013   0.22779   0.24763   0.00000  Uiso   1.00
C2738  C     0.81047   0.36168   0.38560   0.00000  Uiso   1.00
H2739  H     0.81589   0.35783   0.34287   0.00000  Uiso   1.00
C2740  C     0.76982   0.36629   0.26174   0.00000  Uiso   1.00
H2741  H     0.73195   0.31060   0.33947   0.00000  Uiso   1.00
C2742  C     0.77553   0.31390   0.33293   0.00000  Uiso   1.00
N2743  N     0.72046   0.45016   0.41380   0.00000  Uiso   1.00
H2744  H     0.79944   0.27584   0.33000   0.00000  Uiso   1.00
C2745  C     0.81638   0.28705   0.27133   0.00000  Uiso   1.00
C2746  C     0.60455   0.41089   0.25046   0.00000  Uiso   1.00
C2747  C     0.62962   0.43799   0.46244   0.00000  Uiso   1.00
H2748  H     0.62639   0.29296   0.33976   0.00000  Uiso   1.00
C2749  C     0.76634   0.27411   0.28229   0.00000  Uiso   1.00
H2750  H     0.74721   0.27911   0.33293   0.00000  Uiso   1.00
H2751  H     0.69037   0.45374   0.31061   0.00000  Uiso   1.00
C2752  C     0.55285   0.22013   0.21914   0.00000  Uiso   1.00
N2753  N     0.64463   0.31402   0.37942   0.00000  Uiso   1.00
C2754  C     0.77771   0.33809   0.25889   0.00000  Uiso   1.00
C2755  C     0.65879   0.35900   0.23770   0.00000  Uiso   1.00
C2756  C     0.80640   0.34949   0.36121   0.00000  Uiso   1.00
C2757  C     0.79638   0.35225   0.40805   0.00000  Uiso   1.00
H2758  H     0.86476   0.41230   0.22643   0.00000  Uiso   1.00
H2759  H     0.83205   0.37575   0.27952   0.00000  Uiso   1.00
C2760  C     0.65591   0.33343   0.22352   0.00000  Uiso   1.00
C2761  C     0.66238   0.44952   0.25599   0.00000  Uiso   1.00
O2762  O     0.69029   0.24445   0.26798   0.00000  Uiso   1.00
H2763  H     0.81522   0.44707   0.44113   0.00000  Uiso   1.00
O2764  O     0.83997   0.29329   0.44511   0.00000  Uiso   1.00
H2765  H     0.59613   0.28049   0.35495   0.00000  Uiso   1.00
C2766  C     0.86777   0.38013   0.25604   0.00000  Uiso   1.00
H2767  H     0.57193   0.43459   0.35409   0.00000  Uiso   1.00
C2768  C     0.63009   0.43343   0.41382   0.00000  Uiso   1.00
C2769  C     0.63778   0.37789   0.23803   0.00000  Uiso   1.00
C2770  C     0.66228   0.39128   0.32391   0.00000  Uiso   1.00
C2771  C     0.83791   0.38779   0.41369   0.00000  Uiso   1.00
C2772  C     0.65812   0.24934   0.30497   0.00000  Uiso   1.00
C2773  C     0.63448   0.40660   0.25155   0.00000  Uiso   1.00
C2774  C     0.78197   0.45686   0.23018   0.00000  Uiso   1.00
C2775  C     0.75203   0.45767   0.29968   0.00000  Uiso   1.00
H2776  H     0.75343   0.36935   0.32868   0.00000  Uiso   1.00
C2777  C     0.76269   0.37674   0.28795   0.00000  Uiso   1.00
C2778  C     0.67651   0.41554   0.32900   0.00000  Uiso   1.00
H2779  H     0.59325   0.23906   0.28622   0.00000  Uiso   1.00
O2780  O     0.75397   0.40371   0.29028   0.00000  Uiso   1.00
C2781  C     0.82281   0.37863   0.43600   0.00000  Uiso   1.00
C2782  C     0.71364   0.23784   0.22537   0.00000  Uiso   1.00
C2783  C     0.76124   0.42090   0.26892   0.00000  Uiso   1.00
C2784  C     0.70995   0.42954   0.40875   0.00000  Uiso   1.00
H2785  H     0.83369   0.40679   0.24451   0.00000  Uiso   1.00
O2786  O     0.83134   0.38161   0.38672   0.00000  Uiso   1.00
C2787  C     0.77103   0.41093   0.24396   0.00000  Uiso   1.00
H2788  H     0.83774   0.34708   0.25665   0.00000  Uiso   1.00
O2789  O     0.77083   0.38235   0.23892   0.00000  Uiso   1.00
H2790  H     0.74714   0.28448   0.28663   0.00000  Uiso   1.00
C2791  C     0.64172   0.45856   0.41022   0.00000  Uiso   1.00
H2792  H     0.60898   0.34431   0.45149   0.00000  Uiso   1.00
H2793  H     0.67747   0.36414   0.24991   0.00000  Uiso   1.00
H2794  H     0.76414   0.27066   0.25959   0.00000  Uiso   1.00
C2795  C     0.64888   0.38841   0.29864   0.00000  Uiso   1.00
C2796  C     0.85091   0.39687   0.23476   0.00000  Uiso   1.00
C2797  C     0.78065   0.42869   0.22392   0.00000  Uiso   1.00
H2798  H     0.75434   0.25203   0.37412   0.00000  Uiso   1.00
H2799  H     0.63947   0.43712   0.22013   0.00000  Uiso   1.00
C2800  C     0.65098   0.42695   0.23626   0.00000  Uiso   1.00
C2801  C     0.69825   0.38238   0.41983   0.00000  Uiso   1.00
C2802  C     0.58039   0.21976   0.28657   0.00000  Uiso   1.00
C2803  C     0.69884   0.40469   0.40123   0.00000  Uiso   1.00
C2804  C     0.61189   0.27677   0.33889   0.00000  Uiso   1.00
C2805  C     0.59333   0.39564   0.22589   0.00000  Uiso   1.00
C2806  C     0.76978   0.33262   0.30870   0.00000  Uiso   1.00
C2807  C     0.67270   0.37739   0.37025   0.00000  Uiso   1.00
H2808  H     0.63594   0.37076   0.29647   0.00000  Uiso   1.00
C2809  C     0.66446   0.43171   0.28240   0.00000  Uiso   1.00
C2810  C     0.64514   0.25029   0.37058   0.00000  Uiso   1.00
C2811  C     0.77973   0.32228   0.28398   0.00000  Uiso   1.00
C2812  C     0.67060   0.23228   0.28565   0.00000  Uiso   1.00
H2813  H     0.81288   0.29118   0.24927   0.00000  Uiso   1.00
C2814  C     0.63917   0.23783   0.32229   0.00000  Uiso   1.00
C2815  C     0.84143   0.45995   0.27534   0.00000  Uiso   1.00
C2816  C     0.78702   0.32819   0.35807   0.00000  Uiso   1.00
H2817  H     0.59801   0.43191   0.25226   0.00000  Uiso   1.00
H2818  H     0.60391   0.27395   0.31751   0.00000  Uiso   1.00
C2819  C     0.81859   0.22011   0.22819   0.00000  Uiso   1.00
H2820  H     0.78564   0.32952   0.23862   0.00000  Uiso   1.00
C2821  C     0.64776   0.40867   0.27977   0.00000  Uiso   1.00
C2822  C     0.85952   0.40592   0.41690   0.00000  Uiso   1.00
C2823  C     0.60317   0.22948   0.35290   0.00000  Uiso   1.00
N2824  N     0.83382   0.28044   0.37635   0.00000  Uiso   1.00
H2825  H     0.59452   0.40145   0.26786   0.00000  Uiso   1.00
C2826  C     0.68184   0.35953   0.41470   0.00000  Uiso   1.00
C2827  C     0.61392   0.37286   0.22351   0.00000  Uiso   1.00
O2828  O     0.56765   0.22857   0.24108   0.00000  Uiso   1.00
C2829  C     0.87943   0.32306   0.45177   0.00000  Uiso   1.00
H2830  H     0.67067   0.41743   0.22900   0.00000  Uiso   1.00
H2831  H     0.55463   0.44712   0.25776   0.00000  Uiso   1.00
C2832  C     0.65624   0.33414   0.38337   0.00000  Uiso   1.00
C2833  C     0.67895   0.43444   0.30715   0.00000  Uiso   1.00
H2834  H     0.77146   0.26658   0.40204   0.00000  Uiso   1.00
C2835  C     0.72517   0.29536   0.38765   0.00000  Uiso   1.00
H2836  H     0.55532   0.39608   0.24781   0.00000  Uiso   1.00
C2837  C     0.76818   0.26817   0.38037   0.00000  Uiso   1.00
C2838  C     0.75985   0.44930   0.27307   0.00000  Uiso   1.00
C2839  C     0.62318   0.41810   0.39175   0.00000  Uiso   1.00
O2840  O     0.80057   0.36205   0.43366   0.00000  Uiso   1.00
H2841  H     0.81678   0.30341   0.32331   0.00000  Uiso   1.00
H2842  H     0.72868   0.28917   0.41019   0.00000  Uiso   1.00
H2843  H     0.83330   0.30035   0.27858   0.00000  Uiso   1.00
C2844  C     0.79159   0.29328   0.28847   0.00000  Uiso   1.00
C2845  C     0.68690   0.40111   0.37540   0.00000  Uiso   1.00
H2846  H     0.71299   0.31418   0.38951   0.00000  Uiso   1.00
H2847  H     0.66435   0.27136   0.30719   0.00000  Uiso   1.00
C2848  C     0.62662   0.42123   0.43892   0.00000  Uiso   1.00
C2849  C     0.75304   0.29482   0.37363   0.00000  Uiso   1.00
C2850  C     0.67006   0.35719   0.38905   0.00000  Uiso   1.00
H2851  H     0.70753   0.45199   0.24667   0.00000  Uiso   1.00
H2852  H     0.76582   0.32535   0.42391   0.00000  Uiso   1.00
H2853  H     0.78791   0.26598   0.36989   0.00000  Uiso   1.00
C2854  C     0.76225   0.35943   0.31061   0.00000  Uiso   1.00
C2855  C     0.87331   0.41408   0.39426   0.00000  Uiso   1.00
C2856  C     0.71679   0.26570   0.22246   0.00000  Uiso   1.00
O2857  O     0.69013   0.42104   0.35479   0.00000  Uiso   1.00
C2858  C     0.86280   0.30704   0.43525   0.00000  Uiso   1.00
C2859  C     0.56722   0.38127   0.23484   0.00000  Uiso   1.00
C2860  C     0.77291   0.31844   0.38094   0.00000  Uiso   1.00
C2861  C     0.77604   0.33283   0.40490   0.00000  Uiso   1.00
H2862  H     0.87242   0.40617   0.29222   0.00000  Uiso   1.00
C2863  C     0.75023   0.29890   0.34257   0.00000  Uiso   1.00
C2864  C     0.86865   0.41270   0.44190   0.00000  Uiso   1.00
H2865  H     0.84295   0.38317   0.21925   0.00000  Uiso   1.00
H2866  H     0.63617   0.26007   0.38893   0.00000  Uiso   1.00
O2867  O     0.67427   0.31131   0.23005   0.00000  Uiso   1.00
O2868  O     0.71536   0.38220   0.44284   0.00000  Uiso   1.00
C2869  C     0.71662   0.35871   0.45904   0.00000  Uiso   1.00
C2870  C     0.86671   0.30579   0.40664   0.00000  Uiso   1.00
H2871  H     0.58500   0.24101   0.35417   0.00000  Uiso   1.00
N2872  N     0.82260   0.44579   0.27459   0.00000  Uiso   1.00
H2873  H     0.55190   0.40967   0.34210   0.00000  Uiso   1.00
H2874  H     0.55205   0.44150   0.32409   0.00000  Uiso   1.00
H2875  H     0.80407   0.22210   0.45736   0.00000  Uiso   1.00
C2876  C     0.69760   0.33665   0.45231   0.00000  Uiso   1.00
H2877  H     0.78742   0.29679   0.45968   0.00000  Uiso   1.00
H2878  H     0.61951   0.46364   0.26883   0.00000  Uiso   1.00
N2879  N     0.71840   0.28857   0.21944   0.00000  Uiso   1.00
H2880  H     0.55508   0.37139   0.21882   0.00000  Uiso   1.00
C2881  C     0.83175   0.38579   0.46151   0.00000  Uiso   1.00
H2882  H     0.58911   0.21743   0.44978   0.00000  Uiso   1.00
C2883  C     0.80049   0.21959   0.52623   0.00000  Uiso   1.00
O2884  O     0.64893   0.26759   0.70516   0.00000  Uiso   1.00
C2885  C     0.75395   0.28408   0.65029   0.00000  Uiso   1.00
H2886  H     0.64030   0.21773   0.48717   0.00000  Uiso   1.00
C2887  C     0.80140   0.30994   0.56499   0.00000  Uiso   1.00
C2888  C     0.64485   0.42240   0.64180   0.00000  Uiso   1.00
C2889  C     0.83824   0.33205   0.51112   0.00000  Uiso   1.00
N2890  N     0.75303   0.43432   0.49971   0.00000  Uiso   1.00
H2891  H     0.82570   0.35900   0.56603   0.00000  Uiso   1.00
H2892  H     0.68265   0.28125   0.51444   0.00000  Uiso   1.00
C2893  C     0.80486   0.36106   0.55957   0.00000  Uiso   1.00
C2894  C     0.60514   0.34538   0.56565   0.00000  Uiso   1.00
C2895  C     0.62852   0.40770   0.65979   0.00000  Uiso   1.00
C2896  C     0.87090   0.45590   0.59636   0.00000  Uiso   1.00
H2897  H     0.75531   0.21903   0.52959   0.00000  Uiso   1.00
C2898  C     0.71153   0.31598   0.66581   0.00000  Uiso   1.00
C2899  C     0.75544   0.42401   0.55045   0.00000  Uiso   1.00
H2900  H     0.84113   0.23717   0.57980   0.00000  Uiso   1.00
C2901  C     0.79912   0.23764   0.57950   0.00000  Uiso   1.00
H2902  H     0.57566   0.31912   0.52428   0.00000  Uiso   1.00
C2903  C     0.68346   0.24548   0.66949   0.00000  Uiso   1.00
O2904  O     0.87450   0.32644   0.48041   0.00000  Uiso   1.00
C2905  C     0.77578   0.26921   0.64117   0.00000  Uiso   1.00
C2906  C     0.66643   0.39081   0.68118   0.00000  Uiso   1.00
C2907  C     0.85571   0.40048   0.46502   0.00000  Uiso   1.00
H2908  H     0.67009   0.36715   0.62231   0.00000  Uiso   1.00
C2909  C     0.77628   0.43296   0.56553   0.00000  Uiso   1.00
C2910  C     0.61284   0.34620   0.49535   0.00000  Uiso   1.00
H2911  H     0.77546   0.22852   0.48006   0.00000  Uiso   1.00
H2912  H     0.64537   0.31431   0.61710   0.00000  Uiso   1.00
C2913  C     0.61725   0.36135   0.51855   0.00000  Uiso   1.00
H2914  H     0.58488   0.28509   0.52143   0.00000  Uiso   1.00
H2915  H     0.64577   0.33617   0.70144   0.00000  Uiso   1.00
H2916  H     0.61237   0.34360   0.66663   0.00000  Uiso   1.00
H2917  H     0.61001   0.30978   0.61644   0.00000  Uiso   1.00
O2918  O     0.75535   0.29747   0.67696   0.00000  Uiso   1.00
O2919  O     0.71393   0.39643   0.54619   0.00000  Uiso   1.00
C2920  C     0.79904   0.26774   0.65839   0.00000  Uiso   1.00
H2921  H     0.73695   0.24187   0.49724   0.00000  Uiso   1.00
N2922  N     0.55947   0.27518   0.62844   0.00000  Uiso   1.00
C2923  C     0.69105   0.33322   0.67451   0.00000  Uiso   1.00
O2924  O     0.69069   0.43806   0.62742   0.00000  Uiso   1.00
H2925  H     0.75169   0.37171   0.48086   0.00000  Uiso   1.00
C2926  C     0.65009   0.35557   0.58336   0.00000  Uiso   1.00
C2927  C     0.62597   0.34529   0.54225   0.00000  Uiso   1.00
H2928  H     0.80446   0.38032   0.54691   0.00000  Uiso   1.00
C2929  C     0.61928   0.40178   0.49203   0.00000  Uiso   1.00
H2930  H     0.58912   0.35413   0.62003   0.00000  Uiso   1.00
C2931  C     0.65676   0.24763   0.66102   0.00000  Uiso   1.00
N2932  N     0.76246   0.39779   0.65647   0.00000  Uiso   1.00
O2933  O     0.79979   0.24683   0.60699   0.00000  Uiso   1.00
C2934  C     0.73630   0.35416   0.47851   0.00000  Uiso   1.00
C2935  C     0.65270   0.35723   0.55495   0.00000  Uiso   1.00
C2936  C     0.82334   0.44280   0.59488   0.00000  Uiso   1.00
C2937  C     0.71658   0.34908   0.71308   0.00000  Uiso   1.00
H2938  H     0.58738   0.36892   0.67323   0.00000  Uiso   1.00
N2939  N     0.79708   0.38463   0.49834   0.00000  Uiso   1.00
C2940  C     0.60286   0.35530   0.68315   0.00000  Uiso   1.00
C2941  C     0.80196   0.30657   0.47511   0.00000  Uiso   1.00
O2942  O     0.80174   0.43068   0.60982   0.00000  Uiso   1.00
H2943  H     0.78856   0.30844   0.58364   0.00000  Uiso   1.00
H2944  H     0.84597   0.22958   0.49069   0.00000  Uiso   1.00
H2945  H     0.62432   0.35915   0.63142   0.00000  Uiso   1.00
O2946  O     0.70817   0.30123   0.64174   0.00000  Uiso   1.00
C2947  C     0.60422   0.28644   0.71276   0.00000  Uiso   1.00
C2948  C     0.77446   0.25738   0.61569   0.00000  Uiso   1.00
C2949  C     0.73501   0.31514   0.68203   0.00000  Uiso   1.00
C2950  C     0.68384   0.40579   0.66476   0.00000  Uiso   1.00
C2951  C     0.73513   0.40329   0.59083   0.00000  Uiso   1.00
C2952  C     0.67298   0.37306   0.54239   0.00000  Uiso   1.00
H2953  H     0.67324   0.37624   0.52037   0.00000  Uiso   1.00
C2954  C     0.62308   0.24608   0.62551   0.00000  Uiso   1.00
C2955  C     0.72942   0.28431   0.63484   0.00000  Uiso   1.00
C2956  C     0.70274   0.26879   0.59659   0.00000  Uiso   1.00
H2957  H     0.67157   0.33346   0.66350   0.00000  Uiso   1.00
C2958  C     0.67327   0.42221   0.64337   0.00000  Uiso   1.00
C2959  C     0.75847   0.40952   0.60613   0.00000  Uiso   1.00
C2960  C     0.75009   0.25512   0.60155   0.00000  Uiso   1.00
C2961  C     0.63872   0.39160   0.67947   0.00000  Uiso   1.00
C2962  C     0.58460   0.30422   0.51056   0.00000  Uiso   1.00
N2963  N     0.81881   0.26637   0.67133   0.00000  Uiso   1.00
O2964  O     0.59521   0.28176   0.68645   0.00000  Uiso   1.00
C2965  C     0.75466   0.42967   0.52252   0.00000  Uiso   1.00
C2966  C     0.72803   0.25848   0.48694   0.00000  Uiso   1.00
H2967  H     0.80611   0.25096   0.48410   0.00000  Uiso   1.00
C2968  C     0.82972   0.30609   0.46807   0.00000  Uiso   1.00
C2969  C     0.69361   0.35040   0.69747   0.00000  Uiso   1.00
C2970  C     0.72653   0.26875   0.61092   0.00000  Uiso   1.00
H2971  H     0.62924   0.29771   0.59062   0.00000  Uiso   1.00
C2972  C     0.62331   0.34239   0.59092   0.00000  Uiso   1.00
C2973  C     0.87770   0.21926   0.53124   0.00000  Uiso   1.00
C2974  C     0.67356   0.37114   0.70598   0.00000  Uiso   1.00
C2975  C     0.81138   0.32869   0.51958   0.00000  Uiso   1.00
H2976  H     0.82128   0.31219   0.57440   0.00000  Uiso   1.00
H2977  H     0.70811   0.25179   0.47826   0.00000  Uiso   1.00
C2978  C     0.82132   0.45061   0.56737   0.00000  Uiso   1.00
C2979  C     0.73447   0.40779   0.56243   0.00000  Uiso   1.00
H2980  H     0.63023   0.29968   0.54289   0.00000  Uiso   1.00
H2981  H     0.65318   0.31655   0.52181   0.00000  Uiso   1.00
H2982  H     0.58941   0.32946   0.56331   0.00000  Uiso   1.00
H2983  H     0.59393   0.36502   0.56628   0.00000  Uiso   1.00
C2984  C     0.67070   0.36513   0.59996   0.00000  Uiso   1.00
H2985  H     0.61681   0.40221   0.53631   0.00000  Uiso   1.00
C2986  C     0.77973   0.42427   0.59375   0.00000  Uiso   1.00
C2987  C     0.61272   0.31549   0.50334   0.00000  Uiso   1.00
C2988  C     0.60629   0.25893   0.64401   0.00000  Uiso   1.00
H2989  H     0.79280   0.36703   0.57622   0.00000  Uiso   1.00
C2990  C     0.69237   0.37898   0.58759   0.00000  Uiso   1.00
H2991  H     0.75498   0.28675   0.53844   0.00000  Uiso   1.00
C2992  C     0.76116   0.40305   0.63337   0.00000  Uiso   1.00
O2993  O     0.71361   0.38837   0.60378   0.00000  Uiso   1.00
C2994  C     0.61042   0.35921   0.61472   0.00000  Uiso   1.00
C2995  C     0.79838   0.22945   0.47849   0.00000  Uiso   1.00
C2996  C     0.76541   0.33604   0.53492   0.00000  Uiso   1.00
H2997  H     0.61030   0.38133   0.60811   0.00000  Uiso   1.00
C2998  C     0.69385   0.38233   0.55835   0.00000  Uiso   1.00
C2999  C     0.58005   0.26741   0.63495   0.00000  Uiso   1.00
H3000  H     0.70497   0.40509   0.67018   0.00000  Uiso   1.00
H3001  H     0.64216   0.31078   0.46916   0.00000  Uiso   1.00
C3002  C     0.61811   0.38967   0.51786   0.00000  Uiso   1.00
O3003  O     0.61208   0.23596   0.60064   0.00000  Uiso   1.00
C3004  C     0.81356   0.38465   0.48188   0.00000  Uiso   1.00
C3005  C     0.77518   0.22421   0.53737   0.00000  Uiso   1.00
C3006  C     0.73721   0.33178   0.70601   0.00000  Uiso   1.00
C3007  C     0.62835   0.31510   0.60375   0.00000  Uiso   1.00
C3008  C     0.76436   0.31921   0.50959   0.00000  Uiso   1.00
N3009  N     0.68260   0.26871   0.58367   0.00000  Uiso   1.00
H3010  H     0.70574   0.29601   0.53900   0.00000  Uiso   1.00
H3011  H     0.70380   0.25991   0.53442   0.00000  Uiso   1.00
H3012  H     0.76175   0.35807   0.52803   0.00000  Uiso   1.00
C3013  C     0.75452   0.28983   0.51604   0.00000  Uiso   1.00
C3014  C     0.61315   0.26683   0.66982   0.00000  Uiso   1.00
C3015  C     0.69912   0.31347   0.46756   0.00000  Uiso   1.00
C3016  C     0.64971   0.23923   0.63445   0.00000  Uiso   1.00
H3017  H     0.79959   0.28969   0.55544   0.00000  Uiso   1.00
O3018  O     0.86565   0.40063   0.49080   0.00000  Uiso   1.00
H3019  H     0.83452   0.44864   0.47133   0.00000  Uiso   1.00
C3020  C     0.79503   0.33501   0.54649   0.00000  Uiso   1.00
H3021  H     0.75012   0.32963   0.54989   0.00000  Uiso   1.00
H3022  H     0.77088   0.27604   0.50785   0.00000  Uiso   1.00
C3023  C     0.63918   0.26014   0.67892   0.00000  Uiso   1.00
O3024  O     0.63124   0.44054   0.62471   0.00000  Uiso   1.00
C3025  C     0.70292   0.27967   0.52443   0.00000  Uiso   1.00
N3026  N     0.70624   0.24502   0.67407   0.00000  Uiso   1.00
C3027  C     0.79353   0.31907   0.49928   0.00000  Uiso   1.00
H3028  H     0.60639   0.40565   0.65405   0.00000  Uiso   1.00
C3029  C     0.82408   0.23421   0.56652   0.00000  Uiso   1.00
O3030  O     0.74930   0.24227   0.57535   0.00000  Uiso   1.00
C3031  C     0.63191   0.31780   0.52813   0.00000  Uiso   1.00
C3032  C     0.84730   0.32199   0.48691   0.00000  Uiso   1.00
C3033  C     0.62292   0.37289   0.69990   0.00000  Uiso   1.00
H3034  H     0.85238   0.34402   0.52358   0.00000  Uiso   1.00
C3035  C     0.77400   0.23369   0.56400   0.00000  Uiso   1.00
C3036  C     0.74081   0.32855   0.49039   0.00000  Uiso   1.00
C3037  C     0.72589   0.28354   0.50467   0.00000  Uiso   1.00
O3038  O     0.79766   0.44621   0.55145   0.00000  Uiso   1.00
C3039  C     0.72038   0.30811   0.48593   0.00000  Uiso   1.00
O3040  O     0.62403   0.43029   0.48906   0.00000  Uiso   1.00
C3041  C     0.63083   0.22040   0.58615   0.00000  Uiso   1.00
C3042  C     0.62644   0.29803   0.48053   0.00000  Uiso   1.00
H3043  H     0.59234   0.34203   0.69847   0.00000  Uiso   1.00
H3044  H     0.57243   0.30157   0.49148   0.00000  Uiso   1.00
O3045  O     0.66772   0.22426   0.62010   0.00000  Uiso   1.00
C3046  C     0.84708   0.44646   0.60969   0.00000  Uiso   1.00
H3047  H     0.87621   0.41701   0.53890   0.00000  Uiso   1.00
H3048  H     0.84717   0.44100   0.63100   0.00000  Uiso   1.00
H3049  H     0.63774   0.28123   0.48990   0.00000  Uiso   1.00
C3050  C     0.61662   0.38568   0.46810   0.00000  Uiso   1.00
C3051  C     0.61199   0.35801   0.47000   0.00000  Uiso   1.00
C3052  C     0.82530   0.22276   0.54147   0.00000  Uiso   1.00
H3053  H     0.87269   0.21401   0.67335   0.00000  Uiso   1.00
H3054  H     0.84288   0.22386   0.65211   0.00000  Uiso   1.00
C3055  C     0.64798   0.46145   0.61363   0.00000  Uiso   1.00
C3056  C     0.67703   0.45935   0.61632   0.00000  Uiso   1.00
H3057  H     0.61294   0.21853   0.50752   0.00000  Uiso   1.00
C3058  C     0.65730   0.21449   0.59628   0.00000  Uiso   1.00
H3059  H     0.61190   0.28936   0.46613   0.00000  Uiso   1.00
C3060  C     0.64550   0.35626   0.71124   0.00000  Uiso   1.00
C3061  C     0.84400   0.46233   0.55582   0.00000  Uiso   1.00
H3062  H     0.74299   0.25839   0.46994   0.00000  Uiso   1.00
H3063  H     0.77231   0.21413   0.64661   0.00000  Uiso   1.00
H3064  H     0.59058   0.40020   0.70670   0.00000  Uiso   1.00
H3065  H     0.74596   0.39456   0.71270   0.00000  Uiso   1.00
H3066  H     0.68457   0.29740   0.46559   0.00000  Uiso   1.00
H3067  H     0.79737   0.45732   0.46813   0.00000  Uiso   1.00
H3068  H     0.64781   0.35657   0.85006   0.00000  Uiso   1.00
H3069  H     0.73120   0.42596   0.80388   0.00000  Uiso   1.00
C3070  C     0.82195   0.35137   0.92706   0.00000  Uiso   1.00
C3071  C     0.65018   0.33337   0.85249   0.00000  Uiso   1.00
H3072  H     0.66472   0.33191   0.86965   0.00000  Uiso   1.00
C3073  C     0.57618   0.32034   0.78021   0.00000  Uiso   1.00
C3074  C     0.64127   0.33263   0.92595   0.00000  Uiso   1.00
N3075  N     0.64564   0.38232   0.91627   0.00000  Uiso   1.00
H3076  H     0.86562   0.35190   0.92103   0.00000  Uiso   1.00
C3077  C     0.81508   0.24212   0.73963   0.00000  Uiso   1.00
H3078  H     0.78083   0.40714   0.79734   0.00000  Uiso   1.00
H3079  H     0.63080   0.32604   0.86083   0.00000  Uiso   1.00
C3080  C     0.55310   0.33187   0.88617   0.00000  Uiso   1.00
H3081  H     0.84096   0.34546   0.87088   0.00000  Uiso   1.00
C3082  C     0.68950   0.32241   0.82049   0.00000  Uiso   1.00
C3083  C     0.82112   0.38108   0.92098   0.00000  Uiso   1.00
H3084  H     0.83417   0.22671   0.87730   0.00000  Uiso   1.00
H3085  H     0.59810   0.33445   0.81906   0.00000  Uiso   1.00
N3086  N     0.84977   0.42561   0.86921   0.00000  Uiso   1.00
N3087  N     0.86908   0.31717   0.78594   0.00000  Uiso   1.00
H3088  H     0.75548   0.33087   0.71969   0.00000  Uiso   1.00
C3089  C     0.70854   0.31615   0.94900   0.00000  Uiso   1.00
H3090  H     0.73665   0.40641   0.74611   0.00000  Uiso   1.00
H3091  H     0.80450   0.27774   0.93748   0.00000  Uiso   1.00
H3092  H     0.69688   0.30914   0.80286   0.00000  Uiso   1.00
C3093  C     0.78929   0.31892   0.91094   0.00000  Uiso   1.00
H3094  H     0.70830   0.36928   0.78028   0.00000  Uiso   1.00
H3095  H     0.72232   0.21415   0.79896   0.00000  Uiso   1.00
C3096  C     0.66413   0.32015   0.93917   0.00000  Uiso   1.00
C3097  C     0.65984   0.46087   0.79602   0.00000  Uiso   1.00
H3098  H     0.75795   0.37623   0.74104   0.00000  Uiso   1.00
C3099  C     0.63468   0.28301   0.74918   0.00000  Uiso   1.00
C3100  C     0.66013   0.31904   0.82593   0.00000  Uiso   1.00
H3101  H     0.81617   0.25496   0.86933   0.00000  Uiso   1.00
C3102  C     0.63045   0.27884   0.72280   0.00000  Uiso   1.00
C3103  C     0.80928   0.27621   0.77217   0.00000  Uiso   1.00
C3104  C     0.57487   0.31753   0.89723   0.00000  Uiso   1.00
C3105  C     0.62332   0.25559   0.81316   0.00000  Uiso   1.00
C3106  C     0.63670   0.42122   0.81184   0.00000  Uiso   1.00
C3107  C     0.61686   0.31897   0.91949   0.00000  Uiso   1.00
H3108  H     0.70101   0.31471   0.83758   0.00000  Uiso   1.00
H3109  H     0.65531   0.32921   0.78197   0.00000  Uiso   1.00
C3110  C     0.76681   0.23833   0.88361   0.00000  Uiso   1.00
O3111  O     0.82076   0.31591   0.83365   0.00000  Uiso   1.00
H3112  H     0.55156   0.25289   0.89337   0.00000  Uiso   1.00
H3113  H     0.58632   0.30018   0.82045   0.00000  Uiso   1.00
C3114  C     0.66044   0.29266   0.94712   0.00000  Uiso   1.00
C3115  C     0.59272   0.30735   0.75739   0.00000  Uiso   1.00
H3116  H     0.74717   0.22692   0.88884   0.00000  Uiso   1.00
H3117  H     0.85774   0.34769   0.95492   0.00000  Uiso   1.00
O3118  O     0.76983   0.25029   0.75719   0.00000  Uiso   1.00
H3119  H     0.81184   0.41387   0.78028   0.00000  Uiso   1.00
C3120  C     0.83088   0.22685   0.72119   0.00000  Uiso   1.00
C3121  C     0.65471   0.28788   0.82970   0.00000  Uiso   1.00
C3122  C     0.61735   0.29707   0.76795   0.00000  Uiso   1.00
N3123  N     0.63968   0.45471   0.72528   0.00000  Uiso   1.00
H3124  H     0.55724   0.35954   0.78969   0.00000  Uiso   1.00
C3125  C     0.61585   0.29106   0.92491   0.00000  Uiso   1.00
H3126  H     0.61666   0.40544   0.72994   0.00000  Uiso   1.00
H3127  H     0.69093   0.40587   0.72375   0.00000  Uiso   1.00
H3128  H     0.55220   0.26026   0.82879   0.00000  Uiso   1.00
C3129  C     0.78234   0.26792   0.77508   0.00000  Uiso   1.00
O3130  O     0.58804   0.44751   0.81224   0.00000  Uiso   1.00
H3131  H     0.78492   0.40430   0.76110   0.00000  Uiso   1.00
C3132  C     0.60599   0.38926   0.71896   0.00000  Uiso   1.00
H3133  H     0.58417   0.36816   0.77275   0.00000  Uiso   1.00
C3134  C     0.73965   0.27017   0.79864   0.00000  Uiso   1.00
C3135  C     0.80074   0.34588   0.94915   0.00000  Uiso   1.00
C3136  C     0.76777   0.27670   0.79843   0.00000  Uiso   1.00
N3137  N     0.63389   0.22687   0.94923   0.00000  Uiso   1.00
C3138  C     0.78724   0.23559   0.74136   0.00000  Uiso   1.00
O3139  O     0.76578   0.29493   0.84330   0.00000  Uiso   1.00
H3140  H     0.55340   0.28442   0.77953   0.00000  Uiso   1.00
C3141  C     0.85118   0.34098   0.93400   0.00000  Uiso   1.00
C3142  C     0.78010   0.29119   0.81957   0.00000  Uiso   1.00
C3143  C     0.80573   0.30148   0.81477   0.00000  Uiso   1.00
C3144  C     0.80095   0.29306   0.95424   0.00000  Uiso   1.00
C3145  C     0.64372   0.36012   0.92076   0.00000  Uiso   1.00
H3146  H     0.63653   0.35043   0.80459   0.00000  Uiso   1.00
H3147  H     0.60680   0.25150   0.79878   0.00000  Uiso   1.00
C3148  C     0.78960   0.41701   0.77895   0.00000  Uiso   1.00
H3149  H     0.83153   0.38794   0.90130   0.00000  Uiso   1.00
O3150  O     0.82688   0.26528   0.75289   0.00000  Uiso   1.00
H3151  H     0.55252   0.35361   0.88727   0.00000  Uiso   1.00
C3152  C     0.59459   0.31621   0.80689   0.00000  Uiso   1.00
C3153  C     0.81199   0.33478   0.90403   0.00000  Uiso   1.00
C3154  C     0.63589   0.25025   0.94478   0.00000  Uiso   1.00
H3155  H     0.72863   0.34257   0.76909   0.00000  Uiso   1.00
H3156  H     0.56514   0.30558   0.72135   0.00000  Uiso   1.00
H3157  H     0.69519   0.34395   0.81600   0.00000  Uiso   1.00
C3158  C     0.64300   0.32970   0.80129   0.00000  Uiso   1.00
H3159  H     0.59490   0.37757   0.73441   0.00000  Uiso   1.00
H3160  H     0.67515   0.38543   0.74821   0.00000  Uiso   1.00
H3161  H     0.69329   0.34463   0.76239   0.00000  Uiso   1.00
N3162  N     0.71608   0.26529   0.79726   0.00000  Uiso   1.00
H3163  H     0.75994   0.25226   0.86795   0.00000  Uiso   1.00
C3164  C     0.58511   0.29901   0.73096   0.00000  Uiso   1.00
H3165  H     0.79900   0.45019   0.82043   0.00000  Uiso   1.00
C3166  C     0.65597   0.24196   0.84884   0.00000  Uiso   1.00
O3167  O     0.59669   0.33255   0.90707   0.00000  Uiso   1.00
C3168  C     0.63609   0.44767   0.80466   0.00000  Uiso   1.00
H3169  H     0.81433   0.24236   0.90348   0.00000  Uiso   1.00
N3170  N     0.63963   0.39815   0.81766   0.00000  Uiso   1.00
H3171  H     0.75182   0.29933   0.89517   0.00000  Uiso   1.00
H3172  H     0.68251   0.27440   0.86042   0.00000  Uiso   1.00
H3173  H     0.65355   0.27374   0.75791   0.00000  Uiso   1.00
H3174  H     0.77795   0.22172   0.83410   0.00000  Uiso   1.00
C3175  C     0.82249   0.33395   0.87758   0.00000  Uiso   1.00
C3176  C     0.77261   0.30952   0.89023   0.00000  Uiso   1.00
H3177  H     0.82776   0.39410   0.93739   0.00000  Uiso   1.00
O3178  O     0.59363   0.27623   0.91662   0.00000  Uiso   1.00
C3179  C     0.73403   0.32531   0.94195   0.00000  Uiso   1.00
C3180  C     0.75727   0.31078   0.95029   0.00000  Uiso   1.00
C3181  C     0.78247   0.30638   0.86370   0.00000  Uiso   1.00
C3182  C     0.71506   0.36991   0.73602   0.00000  Uiso   1.00
C3183  C     0.63658   0.27842   0.93985   0.00000  Uiso   1.00
C3184  C     0.66654   0.26857   0.84634   0.00000  Uiso   1.00
C3185  C     0.63220   0.28141   0.81388   0.00000  Uiso   1.00
C3186  C     0.56879   0.35138   0.77358   0.00000  Uiso   1.00
C3187  C     0.57283   0.28974   0.90149   0.00000  Uiso   1.00
C3188  C     0.62248   0.30662   0.79811   0.00000  Uiso   1.00
C3189  C     0.78723   0.31723   0.94198   0.00000  Uiso   1.00
C3190  C     0.80877   0.31834   0.85843   0.00000  Uiso   1.00
C3191  C     0.71251   0.35601   0.76325   0.00000  Uiso   1.00
C3192  C     0.84678   0.30686   0.78815   0.00000  Uiso   1.00
O3193  O     0.68821   0.33452   0.94227   0.00000  Uiso   1.00
C3194  C     0.82070   0.29557   0.79080   0.00000  Uiso   1.00
C3195  C     0.73295   0.44573   0.79450   0.00000  Uiso   1.00
H3196  H     0.85227   0.22934   0.71865   0.00000  Uiso   1.00
C3197  C     0.86506   0.42302   0.85041   0.00000  Uiso   1.00
H3198  H     0.73455   0.34416   0.92921   0.00000  Uiso   1.00
H3199  H     0.79972   0.38742   0.91926   0.00000  Uiso   1.00
H3200  H     0.85669   0.32058   0.92785   0.00000  Uiso   1.00
C3201  C     0.55251   0.27469   0.88897   0.00000  Uiso   1.00
H3202  H     0.78399   0.36056   0.94936   0.00000  Uiso   1.00
C3203  C     0.81547   0.23669   0.88238   0.00000  Uiso   1.00
C3204  C     0.63455   0.23551   0.83146   0.00000  Uiso   1.00
O3205  O     0.68359   0.44586   0.79745   0.00000  Uiso   1.00
C3206  C     0.77480   0.21817   0.72269   0.00000  Uiso   1.00
H3207  H     0.55659   0.35193   0.75504   0.00000  Uiso   1.00
C3208  C     0.80380   0.45860   0.79992   0.00000  Uiso   1.00
H3209  H     0.78945   0.44660   0.73393   0.00000  Uiso   1.00
C3210  C     0.78520   0.44680   0.77722   0.00000  Uiso   1.00
O3211  O     0.66763   0.22197   0.86644   0.00000  Uiso   1.00
C3212  C     0.78929   0.22032   0.87732   0.00000  Uiso   1.00
C3213  C     0.61165   0.46198   0.80457   0.00000  Uiso   1.00
H3214  H     0.64466   0.35177   0.73378   0.00000  Uiso   1.00
H3215  H     0.77409   0.23920   0.96060   0.00000  Uiso   1.00
C3216  C     0.68817   0.38442   0.73005   0.00000  Uiso   1.00
N3217  N     0.74564   0.45531   0.93475   0.00000  Uiso   1.00
H3218  H     0.77031   0.24869   0.90180   0.00000  Uiso   1.00
C3219  C     0.74106   0.38821   0.73429   0.00000  Uiso   1.00
C3220  C     0.70504   0.28960   0.96097   0.00000  Uiso   1.00
C3221  C     0.54989   0.30667   0.77960   0.00000  Uiso   1.00
H3222  H     0.73852   0.45681   0.72295   0.00000  Uiso   1.00
C3223  C     0.70844   0.45908   0.78994   0.00000  Uiso   1.00
C3224  C     0.75627   0.45743   0.78264   0.00000  Uiso   1.00
H3225  H     0.82598   0.45491   0.79763   0.00000  Uiso   1.00
C3226  C     0.79368   0.46103   0.75008   0.00000  Uiso   1.00
O3227  O     0.67882   0.27792   0.96292   0.00000  Uiso   1.00
O3228  O     0.55327   0.21674   0.79374   0.00000  Uiso   1.00
H3229  H     0.75750   0.21815   0.79952   0.00000  Uiso   1.00
H3230  H     0.55793   0.21901   0.92998   0.00000  Uiso   1.00
H3231  H     0.75236   0.21660   0.71932   0.00000  Uiso   1.00
H3232  H     0.86706   0.21476   0.90231   0.00000  Uiso   1.00
H3233  H     0.74506   0.25673   1.13257   0.00000  Uiso   1.00
H3234  H     0.78283   0.31442   1.00461   0.00000  Uiso   1.00
H3235  H     0.77875   0.36969   1.11326   0.00000  Uiso   1.00
H3236  H     0.58196   0.25296   1.05772   0.00000  Uiso   1.00
C3237  C     0.84818   0.35648   1.09518   0.00000  Uiso   1.00
N3238  N     0.80739   0.41001   1.18385   0.00000  Uiso   1.00
C3239  C     0.84948   0.31764   1.06141   0.00000  Uiso   1.00
H3240  H     0.86340   0.45400   1.09547   0.00000  Uiso   1.00
C3241  C     0.56925   0.25950   1.19536   0.00000  Uiso   1.00
H3242  H     0.77295   0.28183   1.01887   0.00000  Uiso   1.00
C3243  C     0.83801   0.35634   1.12134   0.00000  Uiso   1.00
C3244  C     0.59730   0.28596   1.02002   0.00000  Uiso   1.00
H3245  H     0.82199   0.36470   1.04222   0.00000  Uiso   1.00
C3246  C     0.57120   0.24555   1.03945   0.00000  Uiso   1.00
H3247  H     0.55857   0.23913   0.98570   0.00000  Uiso   1.00
C3248  C     0.81287   0.31939   1.14602   0.00000  Uiso   1.00
C3249  C     0.63264   0.33013   1.20712   0.00000  Uiso   1.00
C3250  C     0.81312   0.32325   1.09625   0.00000  Uiso   1.00
H3251  H     0.73333   0.34112   1.12097   0.00000  Uiso   1.00
C3252  C     0.81094   0.33964   1.12314   0.00000  Uiso   1.00
O3253  O     0.72884   0.23754   1.17979   0.00000  Uiso   1.00
H3254  H     0.61670   0.27355   1.02033   0.00000  Uiso   1.00
C3255  C     0.83149   0.33798   1.07700   0.00000  Uiso   1.00
O3256  O     0.85346   0.26988   1.18318   0.00000  Uiso   1.00
H3257  H     0.77657   0.27326   1.09340   0.00000  Uiso   1.00
H3258  H     0.58662   0.43227   1.20365   0.00000  Uiso   1.00
C3259  C     0.76950   0.34078   1.14929   0.00000  Uiso   1.00
C3260  C     0.75316   0.21919   1.11235   0.00000  Uiso   1.00
C3261  C     0.73617   0.21985   1.15809   0.00000  Uiso   1.00
H3262  H     0.61060   0.41271   1.18974   0.00000  Uiso   1.00
C3263  C     0.75673   0.36022   1.17078   0.00000  Uiso   1.00
H3264  H     0.76054   0.29572   1.18554   0.00000  Uiso   1.00
H3265  H     0.60006   0.29896   1.00294   0.00000  Uiso   1.00
C3266  C     0.78726   0.31757   1.15908   0.00000  Uiso   1.00
H3267  H     0.80223   0.37089   1.07035   0.00000  Uiso   1.00
C3268  C     0.81161   0.35475   1.05870   0.00000  Uiso   1.00
C3269  C     0.57347   0.26696   1.01641   0.00000  Uiso   1.00
H3270  H     0.57457   0.26480   0.97087   0.00000  Uiso   1.00
C3271  C     0.74489   0.23368   1.13408   0.00000  Uiso   1.00
C3272  C     0.61283   0.34975   1.20850   0.00000  Uiso   1.00
H3273  H     0.73257   0.26053   1.07070   0.00000  Uiso   1.00
H3274  H     0.79929   0.24865   1.10373   0.00000  Uiso   1.00
H3275  H     0.74799   0.23905   1.04587   0.00000  Uiso   1.00
H3276  H     0.73348   0.31293   1.14183   0.00000  Uiso   1.00
H3277  H     0.74685   0.37901   1.16350   0.00000  Uiso   1.00
C3278  C     0.83085   0.28398   1.17391   0.00000  Uiso   1.00
H3279  H     0.72604   0.25732   0.98187   0.00000  Uiso   1.00
C3280  C     0.78839   0.35861   1.13193   0.00000  Uiso   1.00
H3281  H     0.84406   0.36588   1.16424   0.00000  Uiso   1.00
C3282  C     0.74795   0.32681   1.13090   0.00000  Uiso   1.00
H3283  H     0.79617   0.37353   1.14579   0.00000  Uiso   1.00
H3284  H     0.85830   0.32831   1.04443   0.00000  Uiso   1.00
C3285  C     0.57547   0.25201   0.98923   0.00000  Uiso   1.00
N3286  N     0.58004   0.28028   1.19498   0.00000  Uiso   1.00
H3287  H     0.79797   0.34046   1.04932   0.00000  Uiso   1.00
H3288  H     0.73828   0.34951   1.18290   0.00000  Uiso   1.00
C3289  C     0.78502   0.25268   1.08783   0.00000  Uiso   1.00
H3290  H     0.60913   0.30047   1.19000   0.00000  Uiso   1.00
H3291  H     0.59625   0.29963   1.03725   0.00000  Uiso   1.00
C3292  C     0.73874   0.23900   1.06713   0.00000  Uiso   1.00
C3293  C     0.76314   0.23016   1.08594   0.00000  Uiso   1.00
H3294  H     0.85013   0.44225   1.12696   0.00000  Uiso   1.00
H3295  H     0.72152   0.22630   1.06721   0.00000  Uiso   1.00
H3296  H     0.83810   0.30108   1.05271   0.00000  Uiso   1.00
C3297  C     0.85183   0.36884   1.14265   0.00000  Uiso   1.00
C3298  C     0.78645   0.29196   1.00414   0.00000  Uiso   1.00
H3299  H     0.79435   0.25745   1.06730   0.00000  Uiso   1.00
C3300  C     0.83419   0.30328   1.15375   0.00000  Uiso   1.00
H3301  H     0.77338   0.36452   1.18563   0.00000  Uiso   1.00
H3302  H     0.85476   0.30680   1.14432   0.00000  Uiso   1.00
C3303  C     0.78196   0.29629   1.17794   0.00000  Uiso   1.00
C3304  C     0.80324   0.27867   1.18410   0.00000  Uiso   1.00
H3305  H     0.80589   0.28634   1.01177   0.00000  Uiso   1.00
H3306  H     0.79343   0.31723   1.08723   0.00000  Uiso   1.00
H3307  H     0.75722   0.31782   1.11348   0.00000  Uiso   1.00
H3308  H     0.82335   0.30455   1.10151   0.00000  Uiso   1.00
H3309  H     0.59317   0.23854   0.98992   0.00000  Uiso   1.00
H3310  H     0.57487   0.40158   1.18749   0.00000  Uiso   1.00
C3311  C     0.84879   0.25042   1.20277   0.00000  Uiso   1.00
C3312  C     0.87132   0.37076   1.08841   0.00000  Uiso   1.00
H3313  H     0.86771   0.30899   1.07242   0.00000  Uiso   1.00
C3314  C     0.71918   0.22300   1.20209   0.00000  Uiso   1.00
C3315  C     0.55464   0.23430   1.19454   0.00000  Uiso   1.00
O3316  O     0.79809   0.25762   1.20325   0.00000  Uiso   1.00
C3317  C     0.86627   0.45539   1.11864   0.00000  Uiso   1.00
H3318  H     0.77034   0.24216   0.99627   0.00000  Uiso   1.00
C3319  C     0.75371   0.28828   0.96734   0.00000  Uiso   1.00
H3320  H     0.58321   0.22804   1.03562   0.00000  Uiso   1.00
H3321  H     0.59547   0.34731   1.19456   0.00000  Uiso   1.00
H3322  H     0.87218   0.44036   0.99237   0.00000  Uiso   1.00
C3323  C     0.79553   0.41919   1.20234   0.00000  Uiso   1.00
C3324  C     0.78104   0.27985   0.97557   0.00000  Uiso   1.00
H3325  H     0.81036   0.34632   0.97025   0.00000  Uiso   1.00
C3326  C     0.78240   0.24855   0.97825   0.00000  Uiso   1.00
C3327  C     0.59093   0.41070   1.19895   0.00000  Uiso   1.00
C3328  C     0.87634   0.38211   1.13692   0.00000  Uiso   1.00
C3329  C     0.72821   0.27764   0.97114   0.00000  Uiso   1.00
O3330  O     0.62686   0.30901   1.18967   0.00000  Uiso   1.00
C3331  C     0.82240   0.24333   1.21168   0.00000  Uiso   1.00
H3332  H     0.80337   0.24053   0.98100   0.00000  Uiso   1.00
C3333  C     0.86994   0.23444   1.21219   0.00000  Uiso   1.00
H3334  H     0.86844   0.34322   1.21095   0.00000  Uiso   1.00
H3335  H     0.55233   0.26407   1.09785   0.00000  Uiso   1.00
O3336  O     0.54797   0.23968   1.14664   0.00000  Uiso   1.00
H3337  H     0.55828   0.31968   0.99770   0.00000  Uiso   1.00
C3338  C     0.54762   0.28477   1.02086   0.00000  Uiso   1.00
H3339  H     0.82082   0.29548   0.96395   0.00000  Uiso   1.00
C3340  C     0.87588   0.49146   0.34642   0.00000  Uiso   1.00
H3341  H     0.66842   0.49242   0.33996   0.00000  Uiso   1.00
C3342  C     0.67024   0.50401   0.35827   0.00000  Uiso   1.00
C3343  C     0.66059   0.49362   0.38330   0.00000  Uiso   1.00
C3344  C     0.79347   0.50191   0.21599   0.00000  Uiso   1.00
H3345  H     0.85798   0.47093   0.42492   0.00000  Uiso   1.00
C3346  C     0.87668   0.48420   0.30034   0.00000  Uiso   1.00
C3347  C     0.69881   0.54137   0.33313   0.00000  Uiso   1.00
C3348  C     0.66251   0.50978   0.40598   0.00000  Uiso   1.00
C3349  C     0.63957   0.47165   0.26031   0.00000  Uiso   1.00
H3350  H     0.86087   0.68071   0.35621   0.00000  Uiso   1.00
C3351  C     0.61325   0.54179   0.21492   0.00000  Uiso   1.00
C3352  C     0.70808   0.64106   0.40841   0.00000  Uiso   1.00
C3353  C     0.72208   0.52342   0.32590   0.00000  Uiso   1.00
C3354  C     0.68418   0.52853   0.35706   0.00000  Uiso   1.00
H3355  H     0.59856   0.55205   0.37959   0.00000  Uiso   1.00
H3356  H     0.71550   0.50469   0.31484   0.00000  Uiso   1.00
H3357  H     0.84488   0.47766   0.37201   0.00000  Uiso   1.00
C3358  C     0.60441   0.60872   0.45048   0.00000  Uiso   1.00
C3359  C     0.78540   0.53792   0.39531   0.00000  Uiso   1.00
C3360  C     0.67290   0.53560   0.40328   0.00000  Uiso   1.00
H3361  H     0.82615   0.54603   0.38266   0.00000  Uiso   1.00
H3362  H     0.77235   0.49321   0.44681   0.00000  Uiso   1.00
C3363  C     0.87419   0.53777   0.43012   0.00000  Uiso   1.00
C3364  C     0.60043   0.65229   0.32933   0.00000  Uiso   1.00
H3365  H     0.62779   0.67558   0.26885   0.00000  Uiso   1.00
H3366  H     0.54965   0.47284   0.28384   0.00000  Uiso   1.00
H3367  H     0.67278   0.54926   0.42283   0.00000  Uiso   1.00
C3368  C     0.67833   0.54629   0.31015   0.00000  Uiso   1.00
H3369  H     0.66719   0.56572   0.31160   0.00000  Uiso   1.00
C3370  C     0.73978   0.61341   0.24408   0.00000  Uiso   1.00
H3371  H     0.69298   0.47992   0.26205   0.00000  Uiso   1.00
C3372  C     0.63180   0.60984   0.34626   0.00000  Uiso   1.00
H3373  H     0.64146   0.56817   0.35127   0.00000  Uiso   1.00
H3374  H     0.75181   0.62042   0.37271   0.00000  Uiso   1.00
C3375  C     0.57112   0.51831   0.38810   0.00000  Uiso   1.00
N3376  N     0.60631   0.62455   0.26544   0.00000  Uiso   1.00
C3377  C     0.85614   0.51327   0.41957   0.00000  Uiso   1.00
C3378  C     0.77981   0.51214   0.23993   0.00000  Uiso   1.00
H3379  H     0.75595   0.66765   0.25108   0.00000  Uiso   1.00
N3380  N     0.80770   0.59649   0.38290   0.00000  Uiso   1.00
C3381  C     0.85339   0.63481   0.42266   0.00000  Uiso   1.00
H3382  H     0.79358   0.59310   0.26653   0.00000  Uiso   1.00
H3383  H     0.86211   0.55636   0.42749   0.00000  Uiso   1.00
H3384  H     0.70422   0.58675   0.41749   0.00000  Uiso   1.00
C3385  C     0.83686   0.61189   0.42538   0.00000  Uiso   1.00
H3386  H     0.64877   0.65035   0.23451   0.00000  Uiso   1.00
H3387  H     0.67424   0.66200   0.36690   0.00000  Uiso   1.00
H3388  H     0.68974   0.54788   0.28984   0.00000  Uiso   1.00
H3389  H     0.60165   0.68553   0.24551   0.00000  Uiso   1.00
H3390  H     0.66013   0.53081   0.30916   0.00000  Uiso   1.00
H3391  H     0.68920   0.69028   0.23256   0.00000  Uiso   1.00
C3392  C     0.87741   0.48283   0.25067   0.00000  Uiso   1.00
C3393  C     0.81338   0.53723   0.39794   0.00000  Uiso   1.00
C3394  C     0.76958   0.52266   0.41405   0.00000  Uiso   1.00
H3395  H     0.84032   0.58879   0.21788   0.00000  Uiso   1.00
C3396  C     0.64270   0.47584   0.43288   0.00000  Uiso   1.00
C3397  C     0.55945   0.66793   0.30837   0.00000  Uiso   1.00
O3398  O     0.77480   0.55507   0.37669   0.00000  Uiso   1.00
C3399  C     0.73115   0.62667   0.36620   0.00000  Uiso   1.00
O3400  O     0.85496   0.64751   0.39749   0.00000  Uiso   1.00
O3401  O     0.76894   0.49475   0.26038   0.00000  Uiso   1.00
H3402  H     0.77211   0.65063   0.22231   0.00000  Uiso   1.00
H3403  H     0.87827   0.53640   0.45231   0.00000  Uiso   1.00
H3404  H     0.78603   0.63578   0.29509   0.00000  Uiso   1.00
C3405  C     0.70839   0.61920   0.38612   0.00000  Uiso   1.00
C3406  C     0.61335   0.60568   0.25353   0.00000  Uiso   1.00
H3407  H     0.73689   0.53391   0.31283   0.00000  Uiso   1.00
C3408  C     0.86662   0.67310   0.39978   0.00000  Uiso   1.00
C3409  C     0.67350   0.69870   0.24812   0.00000  Uiso   1.00
C3410  C     0.63909   0.63750   0.34978   0.00000  Uiso   1.00
C3411  C     0.55812   0.54602   0.22902   0.00000  Uiso   1.00
H3412  H     0.64647   0.48918   0.27428   0.00000  Uiso   1.00
H3413  H     0.57666   0.47289   0.38351   0.00000  Uiso   1.00
H3414  H     0.87399   0.49225   0.45359   0.00000  Uiso   1.00
C3415  C     0.68196   0.62093   0.36988   0.00000  Uiso   1.00
H3416  H     0.57411   0.50413   0.43045   0.00000  Uiso   1.00
C3417  C     0.66475   0.64264   0.36221   0.00000  Uiso   1.00
H3418  H     0.80736   0.61713   0.24199   0.00000  Uiso   1.00
C3419  C     0.58643   0.53567   0.36947   0.00000  Uiso   1.00
H3420  H     0.78321   0.57243   0.37407   0.00000  Uiso   1.00
C3421  C     0.86758   0.64341   0.44663   0.00000  Uiso   1.00
C3422  C     0.76956   0.46707   0.25466   0.00000  Uiso   1.00
C3423  C     0.77899   0.58910   0.22340   0.00000  Uiso   1.00
C3424  C     0.77713   0.53950   0.24362   0.00000  Uiso   1.00
C3425  C     0.82704   0.52027   0.41678   0.00000  Uiso   1.00
H3426  H     0.76524   0.54649   0.26138   0.00000  Uiso   1.00
C3427  C     0.87142   0.50638   0.39298   0.00000  Uiso   1.00
C3428  C     0.78668   0.55808   0.22417   0.00000  Uiso   1.00
C3429  C     0.64395   0.66758   0.22022   0.00000  Uiso   1.00
O3430  O     0.59525   0.66437   0.45842   0.00000  Uiso   1.00
N3431  N     0.56130   0.60882   0.36838   0.00000  Uiso   1.00
H3432  H     0.72707   0.64387   0.42062   0.00000  Uiso   1.00
C3433  C     0.68217   0.54606   0.37986   0.00000  Uiso   1.00
C3434  C     0.64585   0.69384   0.23637   0.00000  Uiso   1.00
C3435  C     0.63499   0.46539   0.45808   0.00000  Uiso   1.00
H3436  H     0.71691   0.58267   0.33251   0.00000  Uiso   1.00
O3437  O     0.65023   0.46742   0.38364   0.00000  Uiso   1.00
C3438  C     0.71152   0.56631   0.34708   0.00000  Uiso   1.00
C3439  C     0.69507   0.57364   0.37336   0.00000  Uiso   1.00
H3440  H     0.70374   0.66287   0.40108   0.00000  Uiso   1.00
C3441  C     0.86781   0.68836   0.37634   0.00000  Uiso   1.00
H3442  H     0.73109   0.64830   0.36125   0.00000  Uiso   1.00
O3443  O     0.57433   0.56900   0.23312   0.00000  Uiso   1.00
C3444  C     0.60307   0.56476   0.22820   0.00000  Uiso   1.00
C3445  C     0.86181   0.49189   0.37056   0.00000  Uiso   1.00
C3446  C     0.76485   0.62798   0.28976   0.00000  Uiso   1.00
C3447  C     0.85680   0.48904   0.43857   0.00000  Uiso   1.00
C3448  C     0.56972   0.61928   0.30960   0.00000  Uiso   1.00
O3449  O     0.81082   0.58135   0.44924   0.00000  Uiso   1.00
O3450  O     0.62537   0.66051   0.34205   0.00000  Uiso   1.00
C3451  C     0.76996   0.65195   0.24432   0.00000  Uiso   1.00
C3452  C     0.71192   0.58844   0.39522   0.00000  Uiso   1.00
H3453  H     0.72950   0.61634   0.34701   0.00000  Uiso   1.00
C3454  C     0.59323   0.62449   0.32397   0.00000  Uiso   1.00
H3455  H     0.70602   0.63474   0.26052   0.00000  Uiso   1.00
C3456  C     0.62112   0.69236   0.25575   0.00000  Uiso   1.00
H3457  H     0.55670   0.57248   0.40535   0.00000  Uiso   1.00
O3458  O     0.60938   0.60277   0.33158   0.00000  Uiso   1.00
C3459  C     0.82076   0.60267   0.40203   0.00000  Uiso   1.00
C3460  C     0.67348   0.59444   0.36562   0.00000  Uiso   1.00
H3461  H     0.54921   0.63001   0.22606   0.00000  Uiso   1.00
H3462  H     0.73460   0.51534   0.34371   0.00000  Uiso   1.00
H3463  H     0.78962   0.66080   0.25072   0.00000  Uiso   1.00
O3464  O     0.66642   0.60313   0.24182   0.00000  Uiso   1.00
H3465  H     0.71641   0.49411   0.45760   0.00000  Uiso   1.00
C3466  C     0.71200   0.61633   0.24863   0.00000  Uiso   1.00
O3467  O     0.65094   0.50287   0.43173   0.00000  Uiso   1.00
H3468  H     0.73201   0.55911   0.35387   0.00000  Uiso   1.00
H3469  H     0.68493   0.47320   0.22670   0.00000  Uiso   1.00
C3470  C     0.55454   0.49653   0.22414   0.00000  Uiso   1.00
N3471  N     0.74638   0.46495   0.32156   0.00000  Uiso   1.00
H3472  H     0.73462   0.58341   0.39684   0.00000  Uiso   1.00
C3473  C     0.76534   0.62439   0.25780   0.00000  Uiso   1.00
H3474  H     0.60559   0.50906   0.41467   0.00000  Uiso   1.00
H3475  H     0.63427   0.47987   0.24032   0.00000  Uiso   1.00
C3476  C     0.70201   0.58152   0.21631   0.00000  Uiso   1.00
C3477  C     0.56517   0.59244   0.30111   0.00000  Uiso   1.00
C3478  C     0.86417   0.47769   0.27588   0.00000  Uiso   1.00
C3479  C     0.64895   0.58878   0.35492   0.00000  Uiso   1.00
C3480  C     0.78830   0.60610   0.24723   0.00000  Uiso   1.00
C3481  C     0.62240   0.58333   0.23865   0.00000  Uiso   1.00
H3482  H     0.76221   0.60941   0.30214   0.00000  Uiso   1.00
C3483  C     0.74729   0.59371   0.22444   0.00000  Uiso   1.00
H3484  H     0.72576   0.70653   0.22207   0.00000  Uiso   1.00
H3485  H     0.60181   0.52237   0.36101   0.00000  Uiso   1.00
C3486  C     0.58489   0.51705   0.41636   0.00000  Uiso   1.00
C3487  C     0.82857   0.48804   0.45368   0.00000  Uiso   1.00
N3488  N     0.56108   0.57072   0.29443   0.00000  Uiso   1.00
H3489  H     0.55979   0.70691   0.39128   0.00000  Uiso   1.00
H3490  H     0.57122   0.54591   0.35505   0.00000  Uiso   1.00
H3491  H     0.69296   0.63801   0.42396   0.00000  Uiso   1.00
H3492  H     0.58405   0.53669   0.42548   0.00000  Uiso   1.00
H3493  H     0.74958   0.64345   0.29480   0.00000  Uiso   1.00
C3494  C     0.69388   0.59946   0.23536   0.00000  Uiso   1.00
N3495  N     0.58814   0.59312   0.44188   0.00000  Uiso   1.00
C3496  C     0.78195   0.50529   0.43160   0.00000  Uiso   1.00
H3497  H     0.73432   0.50339   0.41011   0.00000  Uiso   1.00
C3498  C     0.64928   0.58266   0.23140   0.00000  Uiso   1.00
H3499  H     0.56371   0.47667   0.21939   0.00000  Uiso   1.00
O3500  O     0.74152   0.52176   0.41506   0.00000  Uiso   1.00
C3501  C     0.58362   0.67388   0.32131   0.00000  Uiso   1.00
C3502  C     0.56951   0.52074   0.22141   0.00000  Uiso   1.00
C3503  C     0.81068   0.50416   0.43343   0.00000  Uiso   1.00
O3504  O     0.86520   0.47307   0.22703   0.00000  Uiso   1.00
C3505  C     0.83150   0.60012   0.44997   0.00000  Uiso   1.00
O3506  O     0.86408   0.47687   0.32477   0.00000  Uiso   1.00
C3507  C     0.56998   0.70315   0.44992   0.00000  Uiso   1.00
H3508  H     0.56421   0.48972   0.35382   0.00000  Uiso   1.00
H3509  H     0.55189   0.68939   0.45039   0.00000  Uiso   1.00
C3510  C     0.56310   0.49072   0.37600   0.00000  Uiso   1.00
C3511  C     0.59604   0.69219   0.45572   0.00000  Uiso   1.00
C3512  C     0.59413   0.70163   0.31975   0.00000  Uiso   1.00
H3513  H     0.55714   0.67660   0.22412   0.00000  Uiso   1.00
H3514  H     0.67928   0.68993   0.26835   0.00000  Uiso   1.00
C3515  C     0.55311   0.64014   0.30243   0.00000  Uiso   1.00
C3516  C     0.62466   0.62596   0.46150   0.00000  Uiso   1.00
C3517  C     0.68799   0.46439   0.24699   0.00000  Uiso   1.00
C3518  C     0.62096   0.65352   0.46252   0.00000  Uiso   1.00
C3519  C     0.87991   0.68327   0.42336   0.00000  Uiso   1.00
H3520  H     0.61622   0.70980   0.26816   0.00000  Uiso   1.00
H3521  H     0.83340   0.71213   0.29478   0.00000  Uiso   1.00
C3522  C     0.61916   0.70768   0.45684   0.00000  Uiso   1.00
H3523  H     0.84007   0.49144   0.49724   0.00000  Uiso   1.00
H3524  H     0.84648   0.62669   0.57218   0.00000  Uiso   1.00
C3525  C     0.63991   0.57763   0.57881   0.00000  Uiso   1.00
C3526  C     0.62577   0.62743   0.54068   0.00000  Uiso   1.00
C3527  C     0.64850   0.70081   0.65487   0.00000  Uiso   1.00
C3528  C     0.72452   0.62797   0.55888   0.00000  Uiso   1.00
H3529  H     0.84033   0.47188   0.53536   0.00000  Uiso   1.00
H3530  H     0.73985   0.61699   0.57013   0.00000  Uiso   1.00
C3531  C     0.55923   0.59177   0.70079   0.00000  Uiso   1.00
C3532  C     0.78251   0.55597   0.57957   0.00000  Uiso   1.00
H3533  H     0.71857   0.57801   0.59129   0.00000  Uiso   1.00
H3534  H     0.66294   0.53129   0.47790   0.00000  Uiso   1.00
C3535  C     0.63431   0.64911   0.58354   0.00000  Uiso   1.00
C3536  C     0.69231   0.67279   0.47777   0.00000  Uiso   1.00
O3537  O     0.62118   0.69204   0.65065   0.00000  Uiso   1.00
H3538  H     0.58005   0.66673   0.58467   0.00000  Uiso   1.00
C3539  C     0.59495   0.68229   0.58131   0.00000  Uiso   1.00
C3540  C     0.69674   0.57672   0.58426   0.00000  Uiso   1.00
H3541  H     0.73987   0.56058   0.55068   0.00000  Uiso   1.00
H3542  H     0.79384   0.56688   0.70808   0.00000  Uiso   1.00
H3543  H     0.60384   0.69092   0.60022   0.00000  Uiso   1.00
C3544  C     0.79385   0.55387   0.52988   0.00000  Uiso   1.00
O3545  O     0.58226   0.58231   0.50228   0.00000  Uiso   1.00
C3546  C     0.56677   0.67547   0.64354   0.00000  Uiso   1.00
H3547  H     0.64849   0.68545   0.53791   0.00000  Uiso   1.00
H3548  H     0.76707   0.54667   0.59478   0.00000  Uiso   1.00
C3549  C     0.59167   0.60615   0.51455   0.00000  Uiso   1.00
C3550  C     0.82293   0.57734   0.49867   0.00000  Uiso   1.00
H3551  H     0.76545   0.55362   0.46559   0.00000  Uiso   1.00
C3552  C     0.66919   0.65683   0.47334   0.00000  Uiso   1.00
H3553  H     0.74797   0.68390   0.64325   0.00000  Uiso   1.00
C3554  C     0.67973   0.50522   0.59807   0.00000  Uiso   1.00
C3555  C     0.70071   0.48991   0.52240   0.00000  Uiso   1.00
C3556  C     0.70399   0.53541   0.49222   0.00000  Uiso   1.00
O3557  O     0.64426   0.69731   0.46500   0.00000  Uiso   1.00
C3558  C     0.82794   0.67475   0.60102   0.00000  Uiso   1.00
N3559  N     0.65633   0.59342   0.71091   0.00000  Uiso   1.00
H3560  H     0.80392   0.55622   0.58812   0.00000  Uiso   1.00
O3561  O     0.60418   0.50145   0.68616   0.00000  Uiso   1.00
C3562  C     0.65406   0.55338   0.58442   0.00000  Uiso   1.00
C3563  C     0.67281   0.56512   0.65048   0.00000  Uiso   1.00
H3564  H     0.73771   0.52546   0.55571   0.00000  Uiso   1.00
H3565  H     0.57267   0.67332   0.53333   0.00000  Uiso   1.00
C3566  C     0.58602   0.65414   0.52795   0.00000  Uiso   1.00
H3567  H     0.62674   0.70931   0.54931   0.00000  Uiso   1.00
H3568  H     0.81058   0.50688   0.56050   0.00000  Uiso   1.00
H3569  H     0.67854   0.48637   0.52061   0.00000  Uiso   1.00
H3570  H     0.78585   0.50081   0.53529   0.00000  Uiso   1.00
C3571  C     0.64730   0.62931   0.56336   0.00000  Uiso   1.00
C3572  C     0.63107   0.50859   0.68046   0.00000  Uiso   1.00
H3573  H     0.61665   0.57801   0.57851   0.00000  Uiso   1.00
H3574  H     0.81156   0.51243   0.48894   0.00000  Uiso   1.00
C3575  C     0.72462   0.55278   0.49920   0.00000  Uiso   1.00
C3576  C     0.61652   0.60682   0.52539   0.00000  Uiso   1.00
H3577  H     0.71068   0.67224   0.67228   0.00000  Uiso   1.00
H3578  H     0.77549   0.49998   0.56809   0.00000  Uiso   1.00
C3579  C     0.61014   0.65051   0.54331   0.00000  Uiso   1.00
N3580  N     0.67879   0.58619   0.64052   0.00000  Uiso   1.00
C3581  C     0.59111   0.53561   0.65324   0.00000  Uiso   1.00
H3582  H     0.71685   0.63285   0.60990   0.00000  Uiso   1.00
H3583  H     0.84254   0.56816   0.61676   0.00000  Uiso   1.00
C3584  C     0.80504   0.57219   0.47585   0.00000  Uiso   1.00
C3585  C     0.83142   0.50411   0.48108   0.00000  Uiso   1.00
O3586  O     0.63847   0.53047   0.58696   0.00000  Uiso   1.00
H3587  H     0.61889   0.63935   0.59552   0.00000  Uiso   1.00
C3588  C     0.74465   0.50962   0.50296   0.00000  Uiso   1.00
C3589  C     0.67273   0.62996   0.47407   0.00000  Uiso   1.00
H3590  H     0.81031   0.66339   0.59294   0.00000  Uiso   1.00
O3591  O     0.61759   0.54567   0.64953   0.00000  Uiso   1.00
O3592  O     0.69850   0.47687   0.69034   0.00000  Uiso   1.00
C3593  C     0.58594   0.65799   0.65789   0.00000  Uiso   1.00
H3594  H     0.57376   0.55836   0.54862   0.00000  Uiso   1.00
C3595  C     0.69224   0.48146   0.60690   0.00000  Uiso   1.00
H3596  H     0.85245   0.61871   0.61851   0.00000  Uiso   1.00
C3597  C     0.62232   0.62545   0.68511   0.00000  Uiso   1.00
H3598  H     0.82253   0.69696   0.60254   0.00000  Uiso   1.00
H3599  H     0.72504   0.61816   0.53879   0.00000  Uiso   1.00
C3600  C     0.56919   0.54853   0.63987   0.00000  Uiso   1.00
C3601  C     0.67526   0.57415   0.47910   0.00000  Uiso   1.00
C3602  C     0.66811   0.68094   0.66500   0.00000  Uiso   1.00
H3603  H     0.62729   0.58684   0.52531   0.00000  Uiso   1.00
C3604  C     0.69842   0.59138   0.48320   0.00000  Uiso   1.00
C3605  C     0.72137   0.58032   0.49463   0.00000  Uiso   1.00
C3606  C     0.74840   0.53768   0.51407   0.00000  Uiso   1.00
H3607  H     0.83913   0.70995   0.56126   0.00000  Uiso   1.00
C3608  C     0.68045   0.54619   0.48119   0.00000  Uiso   1.00
C3609  C     0.66537   0.54005   0.66191   0.00000  Uiso   1.00
C3610  C     0.68337   0.55142   0.58681   0.00000  Uiso   1.00
C3611  C     0.68306   0.60081   0.57948   0.00000  Uiso   1.00
C3612  C     0.61403   0.66695   0.66189   0.00000  Uiso   1.00
C3613  C     0.71343   0.50597   0.49837   0.00000  Uiso   1.00
C3614  C     0.63878   0.69299   0.55711   0.00000  Uiso   1.00
C3615  C     0.67462   0.63770   0.55112   0.00000  Uiso   1.00
H3616  H     0.71811   0.46459   0.47808   0.00000  Uiso   1.00
C3617  C     0.75483   0.52854   0.69413   0.00000  Uiso   1.00
C3618  C     0.77899   0.54078   0.55354   0.00000  Uiso   1.00
H3619  H     0.67878   0.62768   0.53137   0.00000  Uiso   1.00
H3620  H     0.70343   0.66398   0.59745   0.00000  Uiso   1.00
H3621  H     0.72963   0.65011   0.55491   0.00000  Uiso   1.00
H3622  H     0.73808   0.59303   0.50077   0.00000  Uiso   1.00
H3623  H     0.64747   0.65680   0.59959   0.00000  Uiso   1.00
C3624  C     0.69658   0.62775   0.57097   0.00000  Uiso   1.00
C3625  C     0.81800   0.56552   0.52434   0.00000  Uiso   1.00
C3626  C     0.55410   0.58268   0.49485   0.00000  Uiso   1.00
C3627  C     0.84823   0.60619   0.47251   0.00000  Uiso   1.00
H3628  H     0.68135   0.63666   0.61112   0.00000  Uiso   1.00
H3629  H     0.83305   0.56652   0.54201   0.00000  Uiso   1.00
O3630  O     0.84714   0.59135   0.49644   0.00000  Uiso   1.00
H3631  H     0.75994   0.54832   0.68655   0.00000  Uiso   1.00
C3632  C     0.69881   0.64161   0.59874   0.00000  Uiso   1.00
H3633  H     0.77765   0.57742   0.57830   0.00000  Uiso   1.00
C3634  C     0.65517   0.60090   0.57504   0.00000  Uiso   1.00
H3635  H     0.67733   0.65871   0.54457   0.00000  Uiso   1.00
H3636  H     0.83366   0.66552   0.62141   0.00000  Uiso   1.00
N3637  N     0.55126   0.68978   0.63370   0.00000  Uiso   1.00
H3638  H     0.87388   0.64449   0.55438   0.00000  Uiso   1.00
C3639  C     0.63868   0.53108   0.66355   0.00000  Uiso   1.00
C3640  C     0.61931   0.67019   0.56598   0.00000  Uiso   1.00
O3641  O     0.69651   0.52788   0.59287   0.00000  Uiso   1.00
H3642  H     0.65294   0.69981   0.57411   0.00000  Uiso   1.00
C3643  C     0.85251   0.67116   0.58101   0.00000  Uiso   1.00
C3644  C     0.78125   0.55807   0.48123   0.00000  Uiso   1.00
C3645  C     0.78884   0.51131   0.55398   0.00000  Uiso   1.00
C3646  C     0.57743   0.63121   0.51317   0.00000  Uiso   1.00
C3647  C     0.74881   0.70497   0.63655   0.00000  Uiso   1.00
C3648  C     0.74844   0.54124   0.54414   0.00000  Uiso   1.00
C3649  C     0.67867   0.49754   0.68366   0.00000  Uiso   1.00
C3650  C     0.69531   0.68799   0.66633   0.00000  Uiso   1.00
C3651  C     0.55961   0.50294   0.67130   0.00000  Uiso   1.00
C3652  C     0.77592   0.54996   0.50779   0.00000  Uiso   1.00
H3653  H     0.85540   0.64320   0.67770   0.00000  Uiso   1.00
C3654  C     0.65038   0.50688   0.59641   0.00000  Uiso   1.00
H3655  H     0.57209   0.56695   0.62854   0.00000  Uiso   1.00
C3656  C     0.68575   0.52344   0.67186   0.00000  Uiso   1.00
C3657  C     0.63405   0.48232   0.48207   0.00000  Uiso   1.00
C3658  C     0.63134   0.64930   0.67367   0.00000  Uiso   1.00
C3659  C     0.63568   0.48535   0.60558   0.00000  Uiso   1.00
H3660  H     0.58516   0.69927   0.57213   0.00000  Uiso   1.00
N3661  N     0.58490   0.48959   0.60837   0.00000  Uiso   1.00
H3662  H     0.75396   0.50768   0.48278   0.00000  Uiso   1.00
N3663  N     0.74503   0.48111   0.60601   0.00000  Uiso   1.00
C3664  C     0.60835   0.48759   0.60679   0.00000  Uiso   1.00
O3665  O     0.69894   0.61932   0.47814   0.00000  Uiso   1.00
H3666  H     0.87994   0.57615   0.65871   0.00000  Uiso   1.00
C3667  C     0.59480   0.61829   0.68390   0.00000  Uiso   1.00
H3668  H     0.57391   0.52356   0.55830   0.00000  Uiso   1.00
O3669  O     0.71379   0.52968   0.66829   0.00000  Uiso   1.00
O3670  O     0.65999   0.65497   0.67268   0.00000  Uiso   1.00
C3671  C     0.57623   0.63396   0.66892   0.00000  Uiso   1.00
H3672  H     0.82483   0.65471   0.69065   0.00000  Uiso   1.00
C3673  C     0.56789   0.54407   0.56451   0.00000  Uiso   1.00
H3674  H     0.74022   0.70438   0.61541   0.00000  Uiso   1.00
C3675  C     0.73054   0.51555   0.68622   0.00000  Uiso   1.00
H3676  H     0.84493   0.52120   0.47615   0.00000  Uiso   1.00
H3677  H     0.86969   0.54780   0.60198   0.00000  Uiso   1.00
C3678  C     0.84615   0.66146   0.68781   0.00000  Uiso   1.00
C3679  C     0.70888   0.48504   0.47431   0.00000  Uiso   1.00
C3680  C     0.64996   0.61393   0.46713   0.00000  Uiso   1.00
N3681  N     0.63257   0.49485   0.50165   0.00000  Uiso   1.00
C3682  C     0.86249   0.56760   0.60472   0.00000  Uiso   1.00
H3683  H     0.75143   0.49235   0.51505   0.00000  Uiso   1.00
H3684  H     0.55199   0.48721   0.68549   0.00000  Uiso   1.00
H3685  H     0.70984   0.47111   0.52774   0.00000  Uiso   1.00
C3686  C     0.72162   0.48183   0.60689   0.00000  Uiso   1.00
C3687  C     0.55783   0.53606   0.48039   0.00000  Uiso   1.00
N3688  N     0.71212   0.68640   0.48108   0.00000  Uiso   1.00
C3689  C     0.58514   0.51206   0.67068   0.00000  Uiso   1.00
O3690  O     0.58678   0.59575   0.69876   0.00000  Uiso   1.00
H3691  H     0.70367   0.50307   0.54031   0.00000  Uiso   1.00
C3692  C     0.86593   0.62809   0.46925   0.00000  Uiso   1.00
H3693  H     0.84824   0.67703   0.67344   0.00000  Uiso   1.00
C3694  C     0.64501   0.67028   0.46710   0.00000  Uiso   1.00
C3695  C     0.65132   0.49236   0.69200   0.00000  Uiso   1.00
H3696  H     0.58069   0.54999   0.58315   0.00000  Uiso   1.00
C3697  C     0.72316   0.48913   0.69538   0.00000  Uiso   1.00
N3698  N     0.57109   0.51623   0.47543   0.00000  Uiso   1.00
H3699  H     0.85746   0.57643   0.58573   0.00000  Uiso   1.00
H3700  H     0.82330   0.52853   0.69278   0.00000  Uiso   1.00
C3701  C     0.64539   0.47174   0.71049   0.00000  Uiso   1.00
H3702  H     0.85993   0.68868   0.54047   0.00000  Uiso   1.00
H3703  H     0.82531   0.67864   0.54611   0.00000  Uiso   1.00
C3704  C     0.87445   0.61661   0.61820   0.00000  Uiso   1.00
H3705  H     0.68696   0.48127   0.47122   0.00000  Uiso   1.00
O3706  O     0.65104   0.58434   0.46891   0.00000  Uiso   1.00
C3707  C     0.86220   0.64190   0.57300   0.00000  Uiso   1.00
C3708  C     0.84386   0.68779   0.55657   0.00000  Uiso   1.00
O3709  O     0.55001   0.63135   0.50333   0.00000  Uiso   1.00
C3710  C     0.77112   0.51753   0.71294   0.00000  Uiso   1.00
H3711  H     0.80615   0.70576   0.46943   0.00000  Uiso   1.00
C3712  C     0.64104   0.60800   0.69941   0.00000  Uiso   1.00
C3713  C     0.82098   0.51857   0.71359   0.00000  Uiso   1.00
O3714  O     0.54911   0.62493   0.66503   0.00000  Uiso   1.00
H3715  H     0.81905   0.49610   0.70993   0.00000  Uiso   1.00
H3716  H     0.74749   0.70406   0.69391   0.00000  Uiso   1.00
C3717  C     0.87869   0.68111   0.59451   0.00000  Uiso   1.00
N3718  N     0.57422   0.71036   0.69603   0.00000  Uiso   1.00
H3719  H     0.76910   0.71255   0.63492   0.00000  Uiso   1.00
H3720  H     0.87798   0.62819   0.63736   0.00000  Uiso   1.00
C3721  C     0.74231   0.47708   0.71254   0.00000  Uiso   1.00
C3722  C     0.86806   0.46463   0.56886   0.00000  Uiso   1.00
C3723  C     0.82880   0.66335   0.91550   0.00000  Uiso   1.00
H3724  H     0.83430   0.68343   0.74994   0.00000  Uiso   1.00
C3725  C     0.82883   0.67730   0.96115   0.00000  Uiso   1.00
C3726  C     0.63402   0.50096   0.78348   0.00000  Uiso   1.00
H3727  H     0.80952   0.56695   0.74117   0.00000  Uiso   1.00
H3728  H     0.85559   0.62035   0.81489   0.00000  Uiso   1.00
C3729  C     0.69005   0.56285   0.95591   0.00000  Uiso   1.00
C3730  C     0.77719   0.48680   0.75028   0.00000  Uiso   1.00
C3731  C     0.79339   0.65213   0.87338   0.00000  Uiso   1.00
C3732  C     0.57690   0.71370   0.91841   0.00000  Uiso   1.00
C3733  C     0.75457   0.48863   0.89528   0.00000  Uiso   1.00
H3734  H     0.57652   0.53993   0.88041   0.00000  Uiso   1.00
H3735  H     0.83196   0.58124   0.83133   0.00000  Uiso   1.00
H3736  H     0.70207   0.61681   0.80835   0.00000  Uiso   1.00
O3737  O     0.84559   0.66734   0.93901   0.00000  Uiso   1.00
C3738  C     0.68478   0.50709   0.88096   0.00000  Uiso   1.00
C3739  C     0.79532   0.52878   0.72750   0.00000  Uiso   1.00
C3740  C     0.78724   0.67340   0.89159   0.00000  Uiso   1.00
H3741  H     0.78419   0.52537   0.77092   0.00000  Uiso   1.00
H3742  H     0.86544   0.55125   0.94527   0.00000  Uiso   1.00
H3743  H     0.73839   0.61402   0.80609   0.00000  Uiso   1.00
C3744  C     0.66222   0.56758   0.95155   0.00000  Uiso   1.00
H3745  H     0.80262   0.48101   0.80478   0.00000  Uiso   1.00
C3746  C     0.87876   0.51978   0.89568   0.00000  Uiso   1.00
H3747  H     0.58346   0.55791   0.82955   0.00000  Uiso   1.00
N3748  N     0.76938   0.56181   0.81512   0.00000  Uiso   1.00
H3749  H     0.61338   0.54683   0.81415   0.00000  Uiso   1.00
C3750  C     0.68850   0.52716   0.86033   0.00000  Uiso   1.00
H3751  H     0.70550   0.66813   0.86955   0.00000  Uiso   1.00
C3752  C     0.82033   0.63955   0.87343   0.00000  Uiso   1.00
H3753  H     0.58391   0.51865   0.85443   0.00000  Uiso   1.00
C3754  C     0.70460   0.66532   0.84709   0.00000  Uiso   1.00
C3755  C     0.73595   0.52106   0.86304   0.00000  Uiso   1.00
C3756  C     0.76479   0.49178   0.72280   0.00000  Uiso   1.00
C3757  C     0.73231   0.50146   0.88420   0.00000  Uiso   1.00
C3758  C     0.76598   0.59890   0.88536   0.00000  Uiso   1.00
C3759  C     0.59708   0.63621   0.88813   0.00000  Uiso   1.00
C3760  C     0.77584   0.63950   0.85104   0.00000  Uiso   1.00
C3761  C     0.64022   0.53674   0.86136   0.00000  Uiso   1.00
C3762  C     0.79335   0.51394   0.75492   0.00000  Uiso   1.00
H3763  H     0.80698   0.58399   0.85522   0.00000  Uiso   1.00
C3764  C     0.76648   0.54612   0.83245   0.00000  Uiso   1.00
C3765  C     0.59162   0.60463   0.80590   0.00000  Uiso   1.00
H3766  H     0.87440   0.51698   0.81133   0.00000  Uiso   1.00
C3767  C     0.85224   0.63118   0.83346   0.00000  Uiso   1.00
O3768  O     0.75579   0.56486   0.91771   0.00000  Uiso   1.00
C3769  C     0.70673   0.48712   0.78034   0.00000  Uiso   1.00
C3770  C     0.87323   0.50075   0.91547   0.00000  Uiso   1.00
H3771  H     0.77105   0.56359   0.73578   0.00000  Uiso   1.00
H3772  H     0.61512   0.53648   0.92441   0.00000  Uiso   1.00
C3773  C     0.73101   0.62193   0.85901   0.00000  Uiso   1.00
C3774  C     0.84723   0.48898   0.91583   0.00000  Uiso   1.00
H3775  H     0.59994   0.64352   0.84628   0.00000  Uiso   1.00
C3776  C     0.82599   0.62127   0.84940   0.00000  Uiso   1.00
C3777  C     0.74703   0.58227   0.89782   0.00000  Uiso   1.00
H3778  H     0.76829   0.68621   0.89077   0.00000  Uiso   1.00
O3779  O     0.70576   0.49287   0.89225   0.00000  Uiso   1.00
C3780  C     0.66594   0.54207   0.85178   0.00000  Uiso   1.00
C3781  C     0.85906   0.52419   0.87497   0.00000  Uiso   1.00
H3782  H     0.59957   0.47647   0.86314   0.00000  Uiso   1.00
O3783  O     0.58695   0.50387   0.79363   0.00000  Uiso   1.00
C3784  C     0.78551   0.51450   0.86672   0.00000  Uiso   1.00
H3785  H     0.81444   0.51103   0.76544   0.00000  Uiso   1.00
C3786  C     0.79251   0.55848   0.72920   0.00000  Uiso   1.00
C3787  C     0.84475   0.68803   0.73078   0.00000  Uiso   1.00
C3788  C     0.71268   0.60691   0.87422   0.00000  Uiso   1.00
C3789  C     0.60580   0.60131   0.85268   0.00000  Uiso   1.00
C3790  C     0.82761   0.58976   0.85097   0.00000  Uiso   1.00
C3791  C     0.65893   0.48773   0.78547   0.00000  Uiso   1.00
H3792  H     0.56442   0.56571   0.73446   0.00000  Uiso   1.00
O3793  O     0.58985   0.66188   0.89749   0.00000  Uiso   1.00
H3794  H     0.70622   0.68583   0.83915   0.00000  Uiso   1.00
H3795  H     0.78821   0.59575   0.88980   0.00000  Uiso   1.00
H3796  H     0.75331   0.67775   0.84942   0.00000  Uiso   1.00
H3797  H     0.86438   0.53952   0.85861   0.00000  Uiso   1.00
O3798  O     0.59143   0.61602   0.93474   0.00000  Uiso   1.00
C3799  C     0.60486   0.51651   0.91909   0.00000  Uiso   1.00
H3800  H     0.61694   0.49962   0.92727   0.00000  Uiso   1.00
C3801  C     0.76299   0.52710   0.85476   0.00000  Uiso   1.00
H3802  H     0.60478   0.46507   0.89466   0.00000  Uiso   1.00
H3803  H     0.82794   0.69409   0.71713   0.00000  Uiso   1.00
C3804  C     0.82616   0.49380   0.89644   0.00000  Uiso   1.00
C3805  C     0.78155   0.49385   0.88615   0.00000  Uiso   1.00
H3806  H     0.64047   0.62345   0.81248   0.00000  Uiso   1.00
H3807  H     0.65636   0.70991   0.86980   0.00000  Uiso   1.00
C3808  C     0.59705   0.48200   0.88384   0.00000  Uiso   1.00
H3809  H     0.83583   0.63720   0.73451   0.00000  Uiso   1.00
N3810  N     0.63053   0.54627   0.76202   0.00000  Uiso   1.00
C3811  C     0.87512   0.71179   0.78753   0.00000  Uiso   1.00
H3812  H     0.57467   0.48227   0.88837   0.00000  Uiso   1.00
C3813  C     0.87520   0.56762   0.76078   0.00000  Uiso   1.00
O3814  O     0.69908   0.57583   0.90922   0.00000  Uiso   1.00
O3815  O     0.81160   0.52112   0.85688   0.00000  Uiso   1.00
H3816  H     0.85317   0.62984   0.90263   0.00000  Uiso   1.00
C3817  C     0.83118   0.51304   0.87586   0.00000  Uiso   1.00
H3818  H     0.80762   0.64520   0.82023   0.00000  Uiso   1.00
H3819  H     0.79428   0.61126   0.82101   0.00000  Uiso   1.00
H3820  H     0.75845   0.66654   0.81599   0.00000  Uiso   1.00
C3821  C     0.85723   0.63842   0.72827   0.00000  Uiso   1.00
C3822  C     0.59928   0.61444   0.90722   0.00000  Uiso   1.00
H3823  H     0.83916   0.52360   0.72560   0.00000  Uiso   1.00
C3824  C     0.63787   0.51590   0.88044   0.00000  Uiso   1.00
O3825  O     0.79930   0.70147   0.93044   0.00000  Uiso   1.00
H3826  H     0.59199   0.62703   0.80570   0.00000  Uiso   1.00
C3827  C     0.59445   0.53171   0.87050   0.00000  Uiso   1.00
H3828  H     0.64511   0.59001   0.79795   0.00000  Uiso   1.00
C3829  C     0.60050   0.62829   0.86161   0.00000  Uiso   1.00
C3830  C     0.83583   0.64341   0.89717   0.00000  Uiso   1.00
C3831  C     0.63175   0.52508   0.77173   0.00000  Uiso   1.00
H3832  H     0.60560   0.57263   0.91512   0.00000  Uiso   1.00
N3833  N     0.63840   0.57144   0.94797   0.00000  Uiso   1.00
C3834  C     0.73111   0.49812   0.77162   0.00000  Uiso   1.00
C3835  C     0.61020   0.48859   0.79454   0.00000  Uiso   1.00
C3836  C     0.60581   0.58815   0.89969   0.00000  Uiso   1.00
C3837  C     0.75402   0.48256   0.76975   0.00000  Uiso   1.00
H3838  H     0.66920   0.55926   0.83677   0.00000  Uiso   1.00
C3839  C     0.61357   0.55192   0.85889   0.00000  Uiso   1.00
C3840  C     0.72165   0.62924   0.81075   0.00000  Uiso   1.00
O3841  O     0.71403   0.53637   0.85143   0.00000  Uiso   1.00
C3842  C     0.57372   0.69040   0.93394   0.00000  Uiso   1.00
H3843  H     0.72744   0.51814   0.76150   0.00000  Uiso   1.00
C3844  C     0.63834   0.60057   0.81731   0.00000  Uiso   1.00
C3845  C     0.74999   0.47012   0.91676   0.00000  Uiso   1.00
C3846  C     0.72610   0.64446   0.83831   0.00000  Uiso   1.00
C3847  C     0.75370   0.65878   0.83740   0.00000  Uiso   1.00
H3848  H     0.85571   0.56061   0.77112   0.00000  Uiso   1.00
C3849  C     0.80581   0.69543   0.95718   0.00000  Uiso   1.00
H3850  H     0.68445   0.65759   0.84408   0.00000  Uiso   1.00
C3851  C     0.80577   0.67988   0.91210   0.00000  Uiso   1.00
H3852  H     0.85147   0.65223   0.82887   0.00000  Uiso   1.00
H3853  H     0.87249   0.58980   0.75812   0.00000  Uiso   1.00
C3854  C     0.60574   0.56019   0.82936   0.00000  Uiso   1.00
H3855  H     0.72257   0.64359   0.79347   0.00000  Uiso   1.00
C3856  C     0.58160   0.66528   0.92396   0.00000  Uiso   1.00
C3857  C     0.75923   0.61770   0.86579   0.00000  Uiso   1.00
H3858  H     0.68946   0.61107   0.86927   0.00000  Uiso   1.00
C3859  C     0.60897   0.51173   0.88833   0.00000  Uiso   1.00
C3860  C     0.79956   0.62801   0.83412   0.00000  Uiso   1.00
C3861  C     0.73585   0.55972   0.93810   0.00000  Uiso   1.00
C3862  C     0.61101   0.58065   0.87252   0.00000  Uiso   1.00
C3863  C     0.70813   0.56490   0.93443   0.00000  Uiso   1.00
C3864  C     0.65909   0.50198   0.89080   0.00000  Uiso   1.00
O3865  O     0.68279   0.50188   0.77700   0.00000  Uiso   1.00
C3866  C     0.61031   0.58976   0.82574   0.00000  Uiso   1.00
C3867  C     0.71972   0.58855   0.89400   0.00000  Uiso   1.00
C3868  C     0.57850   0.64194   0.94087   0.00000  Uiso   1.00
C3869  C     0.87882   0.51493   0.96351   0.00000  Uiso   1.00
H3870  H     0.84040   0.58079   0.86656   0.00000  Uiso   1.00
O3871  O     0.80226   0.47935   0.89804   0.00000  Uiso   1.00
H3872  H     0.65527   0.59780   0.83243   0.00000  Uiso   1.00
H3873  H     0.59728   0.59750   0.78499   0.00000  Uiso   1.00
H3874  H     0.88000   0.55931   0.73978   0.00000  Uiso   1.00
H3875  H     0.58480   0.51506   0.92711   0.00000  Uiso   1.00
H3876  H     0.65762   0.48475   0.90548   0.00000  Uiso   1.00
C3877  C     0.56605   0.49178   0.80755   0.00000  Uiso   1.00
C3878  C     0.56265   0.69240   0.95997   0.00000  Uiso   1.00
C3879  C     0.56614   0.46443   0.81462   0.00000  Uiso   1.00
H3880  H     0.55105   0.57296   0.77601   0.00000  Uiso   1.00
C3881  C     0.54955   0.57483   0.72091   0.00000  Uiso   1.00
C3882  C     0.85978   0.66560   0.71452   0.00000  Uiso   1.00
H3883  H     0.87009   0.62720   0.84462   0.00000  Uiso   1.00
H3884  H     0.87696   0.56305   0.81843   0.00000  Uiso   1.00
H3885  H     0.84108   0.47963   0.93539   0.00000  Uiso   1.00
H3886  H     0.86023   0.62065   0.71633   0.00000  Uiso   1.00
H3887  H     0.57017   0.59940   0.80799   0.00000  Uiso   1.00
C3888  C     0.74547   0.54832   0.96363   0.00000  Uiso   1.00
H3889  H     0.81485   0.46757   0.74933   0.00000  Uiso   1.00
N3890  N     0.79433   0.62378   0.95665   0.00000  Uiso   1.00
H3891  H     0.86984   0.63732   0.74599   0.00000  Uiso   1.00
C3892  C     0.86403   0.71238   0.73492   0.00000  Uiso   1.00
H3893  H     0.75960   0.53864   1.11379   0.00000  Uiso   1.00
C3894  C     0.69153   0.55940   1.12575   0.00000  Uiso   1.00
N3895  N     0.65457   0.49904   1.17687   0.00000  Uiso   1.00
H3896  H     0.81771   0.51294   1.18094   0.00000  Uiso   1.00
N3897  N     0.55502   0.59922   0.99123   0.00000  Uiso   1.00
C3898  C     0.64245   0.64281   1.07671   0.00000  Uiso   1.00
H3899  H     0.69745   0.57868   1.13477   0.00000  Uiso   1.00
O3900  O     0.62986   0.66578   1.06434   0.00000  Uiso   1.00
C3901  C     0.57991   0.62376   1.18274   0.00000  Uiso   1.00
H3902  H     0.56133   0.59993   1.07467   0.00000  Uiso   1.00
C3903  C     0.62753   0.57898   1.14692   0.00000  Uiso   1.00
C3904  C     0.54891   0.71081   1.19715   0.00000  Uiso   1.00
H3905  H     0.81810   0.59263   1.14901   0.00000  Uiso   1.00
C3906  C     0.64190   0.55420   1.10422   0.00000  Uiso   1.00
H3907  H     0.65727   0.66553   1.20168   0.00000  Uiso   1.00
H3908  H     0.72658   0.66132   1.12691   0.00000  Uiso   1.00
C3909  C     0.63814   0.60097   1.10226   0.00000  Uiso   1.00
C3910  C     0.87530   0.48683   1.15525   0.00000  Uiso   1.00
C3911  C     0.82461   0.65030   1.14087   0.00000  Uiso   1.00
C3912  C     0.77844   0.67342   1.14473   0.00000  Uiso   1.00
C3913  C     0.62390   0.57605   1.11616   0.00000  Uiso   1.00
H3914  H     0.76746   0.65897   1.15665   0.00000  Uiso   1.00
C3915  C     0.80360   0.57158   1.04881   0.00000  Uiso   1.00
C3916  C     0.80518   0.55751   1.07343   0.00000  Uiso   1.00
H3917  H     0.72795   0.50159   1.10800   0.00000  Uiso   1.00
C3918  C     0.63953   0.54133   1.20527   0.00000  Uiso   1.00
C3919  C     0.85916   0.65169   0.99065   0.00000  Uiso   1.00
H3920  H     0.83554   0.63456   1.12989   0.00000  Uiso   1.00
O3921  O     0.73639   0.53495   1.01001   0.00000  Uiso   1.00
H3922  H     0.87526   0.52103   1.10233   0.00000  Uiso   1.00
H3923  H     0.82950   0.51304   1.13289   0.00000  Uiso   1.00
H3924  H     0.55985   0.64503   1.05736   0.00000  Uiso   1.00
H3925  H     0.80136   0.61679   1.19804   0.00000  Uiso   1.00
H3926  H     0.76090   0.63683   1.10850   0.00000  Uiso   1.00
O3927  O     0.83949   0.57504   0.98406   0.00000  Uiso   1.00
C3928  C     0.69939   0.55494   0.98145   0.00000  Uiso   1.00
C3929  C     0.55469   0.66839   0.97422   0.00000  Uiso   1.00
C3930  C     0.71296   0.51187   1.12039   0.00000  Uiso   1.00
H3931  H     0.56173   0.66408   1.11097   0.00000  Uiso   1.00
H3932  H     0.71530   0.51064   1.14352   0.00000  Uiso   1.00
H3933  H     0.83137   0.65060   1.08050   0.00000  Uiso   1.00
C3934  C     0.55035   0.63266   1.18333   0.00000  Uiso   1.00
H3935  H     0.58168   0.60111   1.18571   0.00000  Uiso   1.00
H3936  H     0.65584   0.56341   1.04587   0.00000  Uiso   1.00
C3937  C     0.62762   0.62553   1.09221   0.00000  Uiso   1.00
C3938  C     0.76094   0.69233   1.12615   0.00000  Uiso   1.00
H3939  H     0.63576   0.54629   1.08347   0.00000  Uiso   1.00
C3940  C     0.67648   0.55602   1.05033   0.00000  Uiso   1.00
H3941  H     0.60572   0.62923   1.09639   0.00000  Uiso   1.00
C3942  C     0.55868   0.61991   0.97927   0.00000  Uiso   1.00
C3943  C     0.79681   0.65558   1.12611   0.00000  Uiso   1.00
H3944  H     0.74674   0.57248   1.11729   0.00000  Uiso   1.00
C3945  C     0.71464   0.54208   1.11330   0.00000  Uiso   1.00
C3946  C     0.67141   0.56537   1.10108   0.00000  Uiso   1.00
O3947  O     0.83233   0.67275   1.03515   0.00000  Uiso   1.00
H3948  H     0.61313   0.59576   1.15391   0.00000  Uiso   1.00
O3949  O     0.68124   0.55468   1.00278   0.00000  Uiso   1.00
C3950  C     0.59353   0.57172   1.11094   0.00000  Uiso   1.00
H3951  H     0.73034   0.68351   1.18051   0.00000  Uiso   1.00
O3952  O     0.68758   0.65563   1.06292   0.00000  Uiso   1.00
C3953  C     0.68458   0.70794   1.13164   0.00000  Uiso   1.00
C3954  C     0.69259   0.55002   1.02935   0.00000  Uiso   1.00
C3955  C     0.71009   0.69118   1.17321   0.00000  Uiso   1.00
C3956  C     0.82451   0.70174   1.20476   0.00000  Uiso   1.00
H3957  H     0.77429   0.61788   1.13789   0.00000  Uiso   1.00
C3958  C     0.71900   0.67812   1.02510   0.00000  Uiso   1.00
H3959  H     0.82074   0.64142   1.16181   0.00000  Uiso   1.00
C3960  C     0.74290   0.55132   1.12378   0.00000  Uiso   1.00
H3961  H     0.79894   0.56501   1.14693   0.00000  Uiso   1.00
C3962  C     0.64711   0.67843   1.04435   0.00000  Uiso   1.00
C3963  C     0.68651   0.55408   1.07608   0.00000  Uiso   1.00
C3964  C     0.85344   0.53539   1.01183   0.00000  Uiso   1.00
C3965  C     0.77806   0.69227   1.09882   0.00000  Uiso   1.00
C3966  C     0.80256   0.69970   1.00638   0.00000  Uiso   1.00
H3967  H     0.74444   0.54822   1.14549   0.00000  Uiso   1.00
C3968  C     0.55322   0.68321   1.20226   0.00000  Uiso   1.00
C3969  C     0.67082   0.63895   1.07516   0.00000  Uiso   1.00
C3970  C     0.79664   0.61148   0.97609   0.00000  Uiso   1.00
C3971  C     0.66581   0.59561   1.09699   0.00000  Uiso   1.00
H3972  H     0.77480   0.59859   1.18124   0.00000  Uiso   1.00
H3973  H     0.74913   0.52942   1.06353   0.00000  Uiso   1.00
C3974  C     0.77607   0.70753   1.07505   0.00000  Uiso   1.00
C3975  C     0.82568   0.68104   1.00933   0.00000  Uiso   1.00
H3976  H     0.64332   0.53586   1.11788   0.00000  Uiso   1.00
C3977  C     0.72939   0.57753   1.21010   0.00000  Uiso   1.00
F3978  F     0.76092   0.62363   1.01583   0.00000  Uiso   1.00
C3979  C     0.83393   0.49367   1.12237   0.00000  Uiso   1.00
C3980  C     0.79556   0.70782   0.98014   0.00000  Uiso   1.00
H3981  H     0.58819   0.62926   1.16343   0.00000  Uiso   1.00
C3982  C     0.79934   0.59849   1.00027   0.00000  Uiso   1.00
C3983  C     0.63699   0.69432   1.02339   0.00000  Uiso   1.00
H3984  H     0.83371   0.55859   1.15398   0.00000  Uiso   1.00
C3985  C     0.73043   0.68297   1.12427   0.00000  Uiso   1.00
C3986  C     0.86426   0.47835   1.17910   0.00000  Uiso   1.00
C3987  C     0.72015   0.54110   1.03314   0.00000  Uiso   1.00
C3988  C     0.72824   0.53795   1.06010   0.00000  Uiso   1.00
H3989  H     0.58332   0.59039   1.11356   0.00000  Uiso   1.00
C3990  C     0.86364   0.48521   1.12679   0.00000  Uiso   1.00
H3991  H     0.67986   0.54725   1.14090   0.00000  Uiso   1.00
C3992  C     0.79108   0.59674   1.19672   0.00000  Uiso   1.00
C3993  C     0.78064   0.60485   1.02057   0.00000  Uiso   1.00
C3994  C     0.83821   0.67052   0.98709   0.00000  Uiso   1.00
C3995  C     0.78307   0.59118   1.04492   0.00000  Uiso   1.00
C3996  C     0.79357   0.70094   1.05357   0.00000  Uiso   1.00
C3997  C     0.81566   0.68280   1.05625   0.00000  Uiso   1.00
H3998  H     0.58517   0.55553   1.12438   0.00000  Uiso   1.00
H3999  H     0.61669   0.56138   1.15758   0.00000  Uiso   1.00
C4000  C     0.68326   0.61546   1.08491   0.00000  Uiso   1.00
C4001  C     0.81730   0.66851   1.08041   0.00000  Uiso   1.00
H4002  H     0.72466   0.68867   1.10373   0.00000  Uiso   1.00
C4003  C     0.65374   0.70572   1.00331   0.00000  Uiso   1.00
H4004  H     0.60765   0.70691   1.18978   0.00000  Uiso   1.00
H4005  H     0.69834   0.67243   1.17252   0.00000  Uiso   1.00
C4006  C     0.81949   0.57853   1.00379   0.00000  Uiso   1.00
C4007  C     0.87851   0.48222   1.20351   0.00000  Uiso   1.00
H4008  H     0.57090   0.63170   1.11964   0.00000  Uiso   1.00
H4009  H     0.79124   0.61745   1.10610   0.00000  Uiso   1.00
C4010  C     0.67603   0.67319   1.04375   0.00000  Uiso   1.00
F4011  F     0.76799   0.59956   1.06638   0.00000  Uiso   1.00
C4012  C     0.77967   0.62986   1.11923   0.00000  Uiso   1.00
H4013  H     0.82962   0.49619   1.10134   0.00000  Uiso   1.00
H4014  H     0.64763   0.58099   1.15185   0.00000  Uiso   1.00
H4015  H     0.59492   0.56653   1.08894   0.00000  Uiso   1.00
C4016  C     0.82138   0.56402   1.02832   0.00000  Uiso   1.00
H4017  H     0.59103   0.63542   1.19845   0.00000  Uiso   1.00
H4018  H     0.70629   0.60992   1.08259   0.00000  Uiso   1.00
C4019  C     0.79861   0.67371   1.10125   0.00000  Uiso   1.00
O4020  O     0.84110   0.54504   1.03385   0.00000  Uiso   1.00
H4021  H     0.78955   0.68675   1.15857   0.00000  Uiso   1.00
C4022  C     0.69235   0.68610   1.02514   0.00000  Uiso   1.00
C4023  C     0.81605   0.57177   1.15740   0.00000  Uiso   1.00
C4024  C     0.55229   0.64539   1.11535   0.00000  Uiso   1.00
C4025  C     0.71118   0.54407   1.08178   0.00000  Uiso   1.00
H4026  H     0.69371   0.50335   1.11627   0.00000  Uiso   1.00
N4027  N     0.82317   0.67898   1.19777   0.00000  Uiso   1.00
C4028  C     0.81259   0.57503   1.18786   0.00000  Uiso   1.00
H4029  H     0.83674   0.66900   1.14368   0.00000  Uiso   1.00
N4030  N     0.80760   0.54609   1.09413   0.00000  Uiso   1.00
C4031  C     0.61067   0.70019   1.02516   0.00000  Uiso   1.00
C4032  C     0.56420   0.64373   0.96488   0.00000  Uiso   1.00
C4033  C     0.68203   0.70299   1.00458   0.00000  Uiso   1.00
N4034  N     0.74153   0.67199   1.02626   0.00000  Uiso   1.00
C4035  C     0.72659   0.54623   0.98535   0.00000  Uiso   1.00
C4036  C     0.85271   0.55044   0.98646   0.00000  Uiso   1.00
N4037  N     0.58801   0.70575   1.02664   0.00000  Uiso   1.00
H4038  H     0.85691   0.56920   1.19220   0.00000  Uiso   1.00
C4039  C     0.84033   0.58514   1.19612   0.00000  Uiso   1.00
C4040  C     0.71231   0.70196   1.14363   0.00000  Uiso   1.00
H4041  H     0.84531   0.60472   1.18664   0.00000  Uiso   1.00
O4042  O     0.79533   0.47509   1.21069   0.00000  Uiso   1.00
O4043  O     0.68360   0.56471   1.20199   0.00000  Uiso   1.00
C4044  C     0.64883   0.51784   1.18936   0.00000  Uiso   1.00
N4045  N     0.87775   0.64762   1.19114   0.00000  Uiso   1.00
H4046  H     0.81881   0.47874   1.12767   0.00000  Uiso   1.00
N4047  N     0.87719   0.63598   0.99242   0.00000  Uiso   1.00
H4048  H     0.73356   0.56107   1.19528   0.00000  Uiso   1.00
C4049  C     0.80453   0.52117   1.19741   0.00000  Uiso   1.00
C4050  C     0.80116   0.54879   1.20148   0.00000  Uiso   1.00
N4051  N     0.79568   0.53274   0.97059   0.00000  Uiso   1.00
H4052  H     0.66933   0.69269   1.12502   0.00000  Uiso   1.00
C4053  C     0.77300   0.54046   0.96725   0.00000  Uiso   1.00
H4054  H     0.69917   0.70658   1.18857   0.00000  Uiso   1.00
C4055  C     0.86742   0.51015   1.01131   0.00000  Uiso   1.00
O4056  O     0.69954   0.71252   0.98434   0.00000  Uiso   1.00
H4057  H     0.87037   0.49938   1.03179   0.00000  Uiso   1.00
O4058  O     0.59602   0.51880   1.20969   0.00000  Uiso   1.00
H4059  H     0.54722   0.60635   1.14763   0.00000  Uiso   1.00
H4060  H     0.62164   0.66361   1.21379   0.00000  Uiso   1.00
C4061  C     0.65686   0.56313   1.21225   0.00000  Uiso   1.00
C4062  C     0.87961   0.49926   0.98813   0.00000  Uiso   1.00
C4063  C     0.54724   0.66397   1.18220   0.00000  Uiso   1.00
O4064  O     0.78930   0.71208   1.02828   0.00000  Uiso   1.00
H4065  H     0.84346   0.46966   1.18063   0.00000  Uiso   1.00
C4066  C     0.86598   0.53970   0.96444   0.00000  Uiso   1.00
C4067  C     0.63523   0.91807   0.25574   0.00000  Uiso   1.00
H4068  H     0.55011   0.95961   0.44156   0.00000  Uiso   1.00
C4069  C     0.66885   0.87894   0.26052   0.00000  Uiso   1.00
C4070  C     0.55010   0.83215   0.30784   0.00000  Uiso   1.00
H4071  H     0.86461   0.86004   0.26727   0.00000  Uiso   1.00
N4072  N     0.75519   0.94991   0.37925   0.00000  Uiso   1.00
H4073  H     0.64864   0.93562   0.26159   0.00000  Uiso   1.00
H4074  H     0.67986   0.92793   0.33475   0.00000  Uiso   1.00
H4075  H     0.56779   0.93814   0.34250   0.00000  Uiso   1.00
C4076  C     0.87171   0.91764   0.25929   0.00000  Uiso   1.00
C4077  C     0.63235   0.87706   0.22695   0.00000  Uiso   1.00
O4078  O     0.77794   0.78223   0.23846   0.00000  Uiso   1.00
H4079  H     0.63601   0.94371   0.35830   0.00000  Uiso   1.00
C4080  C     0.66232   0.73706   0.22124   0.00000  Uiso   1.00
H4081  H     0.82092   0.78257   0.42131   0.00000  Uiso   1.00
H4082  H     0.72442   0.80906   0.37031   0.00000  Uiso   1.00
C4083  C     0.61578   0.85846   0.23890   0.00000  Uiso   1.00
H4084  H     0.68422   0.89583   0.32055   0.00000  Uiso   1.00
H4085  H     0.65606   0.87235   0.27782   0.00000  Uiso   1.00
C4086  C     0.70039   0.85044   0.40067   0.00000  Uiso   1.00
H4087  H     0.86786   0.76123   0.34256   0.00000  Uiso   1.00
H4088  H     0.86885   0.92728   0.23994   0.00000  Uiso   1.00
H4089  H     0.69731   0.75962   0.31690   0.00000  Uiso   1.00
H4090  H     0.68575   0.81406   0.26310   0.00000  Uiso   1.00
C4091  C     0.56560   0.95373   0.45696   0.00000  Uiso   1.00
C4092  C     0.72836   0.72737   0.23102   0.00000  Uiso   1.00
C4093  C     0.66905   0.90756   0.21967   0.00000  Uiso   1.00
C4094  C     0.82310   0.91015   0.41093   0.00000  Uiso   1.00
H4095  H     0.84816   0.73867   0.44590   0.00000  Uiso   1.00
H4096  H     0.61280   0.92779   0.33647   0.00000  Uiso   1.00
C4097  C     0.79865   0.81837   0.43478   0.00000  Uiso   1.00
C4098  C     0.84464   0.72861   0.28703   0.00000  Uiso   1.00
H4099  H     0.67693   0.86184   0.24802   0.00000  Uiso   1.00
C4100  C     0.57476   0.76617   0.25442   0.00000  Uiso   1.00
H4101  H     0.61779   0.92638   0.24666   0.00000  Uiso   1.00
N4102  N     0.82353   0.83617   0.23265   0.00000  Uiso   1.00
C4103  C     0.68290   0.77121   0.27404   0.00000  Uiso   1.00
C4104  C     0.75469   0.76739   0.24206   0.00000  Uiso   1.00
C4105  C     0.80717   0.86354   0.42078   0.00000  Uiso   1.00
H4106  H     0.62736   0.90954   0.27418   0.00000  Uiso   1.00
O4107  O     0.58325   0.82159   0.23688   0.00000  Uiso   1.00
C4108  C     0.66941   0.79772   0.26367   0.00000  Uiso   1.00
H4109  H     0.75043   0.87514   0.35276   0.00000  Uiso   1.00
H4110  H     0.60123   0.89186   0.30725   0.00000  Uiso   1.00
C4111  C     0.58812   0.79479   0.45484   0.00000  Uiso   1.00
H4112  H     0.68593   0.88930   0.26973   0.00000  Uiso   1.00
C4113  C     0.70912   0.76446   0.25764   0.00000  Uiso   1.00
H4114  H     0.67030   0.78080   0.31672   0.00000  Uiso   1.00
C4115  C     0.73449   0.82777   0.37139   0.00000  Uiso   1.00
C4116  C     0.82536   0.81233   0.22993   0.00000  Uiso   1.00
H4117  H     0.65269   0.80298   0.27761   0.00000  Uiso   1.00
C4118  C     0.55342   0.90231   0.45422   0.00000  Uiso   1.00
C4119  C     0.59709   0.84262   0.22298   0.00000  Uiso   1.00
O4120  O     0.77376   0.85597   0.45598   0.00000  Uiso   1.00
C4121  C     0.56356   0.95994   0.34132   0.00000  Uiso   1.00
H4122  H     0.74661   0.83202   0.35234   0.00000  Uiso   1.00
H4123  H     0.86546   0.86952   0.23376   0.00000  Uiso   1.00
C4124  C     0.64128   0.71735   0.21537   0.00000  Uiso   1.00
C4125  C     0.73365   0.87751   0.36902   0.00000  Uiso   1.00
C4126  C     0.65726   0.83724   0.41776   0.00000  Uiso   1.00
O4127  O     0.77655   0.72753   0.22159   0.00000  Uiso   1.00
H4128  H     0.73385   0.85885   0.42519   0.00000  Uiso   1.00
C4129  C     0.83115   0.95685   0.43600   0.00000  Uiso   1.00
C4130  C     0.78933   0.87365   0.44060   0.00000  Uiso   1.00
H4131  H     0.57218   0.90726   0.41512   0.00000  Uiso   1.00
C4132  C     0.86874   0.74003   0.33637   0.00000  Uiso   1.00
C4133  C     0.84077   0.87172   0.38618   0.00000  Uiso   1.00
C4134  C     0.67712   0.72998   0.24714   0.00000  Uiso   1.00
C4135  C     0.78892   0.90143   0.44599   0.00000  Uiso   1.00
H4136  H     0.65981   0.79529   0.24235   0.00000  Uiso   1.00
H4137  H     0.62820   0.80894   0.36145   0.00000  Uiso   1.00
H4138  H     0.63420   0.83380   0.41752   0.00000  Uiso   1.00
C4139  C     0.62471   0.82844   0.34873   0.00000  Uiso   1.00
C4140  C     0.67123   0.84876   0.39717   0.00000  Uiso   1.00
C4141  C     0.60001   0.82880   0.33345   0.00000  Uiso   1.00
H4142  H     0.68675   0.82917   0.34824   0.00000  Uiso   1.00
C4143  C     0.71523   0.85112   0.37332   0.00000  Uiso   1.00
C4144  C     0.66479   0.85876   0.36815   0.00000  Uiso   1.00
C4145  C     0.69131   0.85054   0.35349   0.00000  Uiso   1.00
H4146  H     0.70212   0.79242   0.30667   0.00000  Uiso   1.00
C4147  C     0.66952   0.83552   0.44456   0.00000  Uiso   1.00
H4148  H     0.72240   0.89631   0.36414   0.00000  Uiso   1.00
C4149  C     0.63944   0.85212   0.35058   0.00000  Uiso   1.00
H4150  H     0.57479   0.87197   0.42709   0.00000  Uiso   1.00
C4151  C     0.62664   0.92350   0.35334   0.00000  Uiso   1.00
C4152  C     0.84883   0.94838   0.41453   0.00000  Uiso   1.00
C4153  C     0.56130   0.89094   0.42526   0.00000  Uiso   1.00
H4154  H     0.66102   0.91633   0.30453   0.00000  Uiso   1.00
H4155  H     0.55227   0.91115   0.37251   0.00000  Uiso   1.00
H4156  H     0.83127   0.93710   0.31677   0.00000  Uiso   1.00
H4157  H     0.87029   0.77418   0.28606   0.00000  Uiso   1.00
C4158  C     0.64756   0.90147   0.34624   0.00000  Uiso   1.00
C4159  C     0.60857   0.87414   0.31939   0.00000  Uiso   1.00
H4160  H     0.66717   0.73354   0.28814   0.00000  Uiso   1.00
C4161  C     0.68848   0.77565   0.30461   0.00000  Uiso   1.00
H4162  H     0.69550   0.85738   0.33249   0.00000  Uiso   1.00
C4163  C     0.59308   0.85072   0.31712   0.00000  Uiso   1.00
C4164  C     0.56355   0.94669   0.27739   0.00000  Uiso   1.00
C4165  C     0.56823   0.77535   0.22750   0.00000  Uiso   1.00
H4166  H     0.64395   0.88877   0.38643   0.00000  Uiso   1.00
C4167  C     0.65983   0.88908   0.37169   0.00000  Uiso   1.00
C4168  C     0.63154   0.87493   0.33625   0.00000  Uiso   1.00
H4169  H     0.56098   0.76720   0.39588   0.00000  Uiso   1.00
N4170  N     0.55401   0.74437   0.34811   0.00000  Uiso   1.00
H4171  H     0.67517   0.90349   0.38050   0.00000  Uiso   1.00
C4172  C     0.87097   0.73605   0.30497   0.00000  Uiso   1.00
H4173  H     0.54878   0.79057   0.41896   0.00000  Uiso   1.00
C4174  C     0.80145   0.77642   0.46167   0.00000  Uiso   1.00
C4175  C     0.62474   0.94850   0.42134   0.00000  Uiso   1.00
O4176  O     0.58287   0.80679   0.33456   0.00000  Uiso   1.00
N4177  N     0.62733   0.92569   0.42374   0.00000  Uiso   1.00
C4178  C     0.75298   0.74029   0.23129   0.00000  Uiso   1.00
C4179  C     0.82375   0.88116   0.40717   0.00000  Uiso   1.00
C4180  C     0.58826   0.77575   0.43139   0.00000  Uiso   1.00
C4181  C     0.78181   0.82953   0.45530   0.00000  Uiso   1.00
H4182  H     0.85179   0.90951   0.26752   0.00000  Uiso   1.00
H4183  H     0.79993   0.72376   0.43817   0.00000  Uiso   1.00
C4184  C     0.66562   0.74670   0.27034   0.00000  Uiso   1.00
H4185  H     0.74680   0.88234   0.38688   0.00000  Uiso   1.00
O4186  O     0.84154   0.92709   0.39655   0.00000  Uiso   1.00
H4187  H     0.60858   0.80307   0.40079   0.00000  Uiso   1.00
C4188  C     0.55748   0.80834   0.32256   0.00000  Uiso   1.00
C4189  C     0.66960   0.91081   0.32475   0.00000  Uiso   1.00
H4190  H     0.58354   0.81608   0.44894   0.00000  Uiso   1.00
H4191  H     0.61600   0.85480   0.25960   0.00000  Uiso   1.00
C4192  C     0.80868   0.79145   0.43880   0.00000  Uiso   1.00
H4193  H     0.61188   0.88138   0.45136   0.00000  Uiso   1.00
H4194  H     0.63049   0.78175   0.42041   0.00000  Uiso   1.00
O4195  O     0.80831   0.83469   0.41444   0.00000  Uiso   1.00
H4196  H     0.74737   0.82869   0.39088   0.00000  Uiso   1.00
H4197  H     0.73319   0.80068   0.26277   0.00000  Uiso   1.00
H4198  H     0.61281   0.91728   0.36984   0.00000  Uiso   1.00
C4199  C     0.65166   0.89700   0.24214   0.00000  Uiso   1.00
O4200  O     0.87450   0.78573   0.22025   0.00000  Uiso   1.00
N4201  N     0.71095   0.85001   0.21639   0.00000  Uiso   1.00
H4202  H     0.61135   0.76750   0.39307   0.00000  Uiso   1.00
C4203  C     0.69672   0.84525   0.44836   0.00000  Uiso   1.00
H4204  H     0.57562   0.93143   0.28747   0.00000  Uiso   1.00
N4205  N     0.60174   0.72404   0.31624   0.00000  Uiso   1.00
C4206  C     0.70654   0.73942   0.24425   0.00000  Uiso   1.00
C4207  C     0.80467   0.91994   0.43108   0.00000  Uiso   1.00
C4208  C     0.80098   0.76919   0.22826   0.00000  Uiso   1.00
C4209  C     0.71287   0.85268   0.42587   0.00000  Uiso   1.00
C4210  C     0.73236   0.78025   0.25515   0.00000  Uiso   1.00
O4211  O     0.56881   0.85340   0.30235   0.00000  Uiso   1.00
C4212  C     0.61108   0.78194   0.40953   0.00000  Uiso   1.00
C4213  C     0.59339   0.74690   0.44168   0.00000  Uiso   1.00
N4214  N     0.58012   0.76035   0.27623   0.00000  Uiso   1.00
H4215  H     0.63659   0.74682   0.44972   0.00000  Uiso   1.00
C4216  C     0.82691   0.78331   0.22634   0.00000  Uiso   1.00
O4217  O     0.80467   0.94743   0.43986   0.00000  Uiso   1.00
H4218  H     0.64338   0.74863   0.26858   0.00000  Uiso   1.00
C4219  C     0.56915   0.73200   0.44144   0.00000  Uiso   1.00
C4220  C     0.61705   0.73481   0.44909   0.00000  Uiso   1.00
C4221  C     0.80099   0.74244   0.22114   0.00000  Uiso   1.00
N4222  N     0.85444   0.86487   0.36862   0.00000  Uiso   1.00
H4223  H     0.55282   0.87597   0.37038   0.00000  Uiso   1.00
H4224  H     0.84926   0.73213   0.34550   0.00000  Uiso   1.00
H4225  H     0.85075   0.72265   0.26611   0.00000  Uiso   1.00
C4226  C     0.56053   0.77282   0.41786   0.00000  Uiso   1.00
C4227  C     0.84337   0.95577   0.31272   0.00000  Uiso   1.00
H4228  H     0.83009   0.74488   0.28361   0.00000  Uiso   1.00
C4229  C     0.85094   0.76955   0.21986   0.00000  Uiso   1.00
C4230  C     0.86571   0.95924   0.29492   0.00000  Uiso   1.00
O4231  O     0.55360   0.72873   0.21717   0.00000  Uiso   1.00
C4232  C     0.87414   0.95907   0.41131   0.00000  Uiso   1.00
H4233  H     0.86788   0.76827   0.39464   0.00000  Uiso   1.00
C4234  C     0.84953   0.74230   0.21409   0.00000  Uiso   1.00
H4235  H     0.68969   0.89706   0.22091   0.00000  Uiso   1.00
H4236  H     0.55845   0.93833   0.25698   0.00000  Uiso   1.00
H4237  H     0.67283   0.92908   0.22097   0.00000  Uiso   1.00
C4238  C     0.79826   0.72550   0.46071   0.00000  Uiso   1.00
C4239  C     0.87860   0.86763   0.25175   0.00000  Uiso   1.00
C4240  C     0.57174   0.80262   0.21821   0.00000  Uiso   1.00
H4241  H     0.60881   0.79617   0.46305   0.00000  Uiso   1.00
C4242  C     0.56952   0.92700   0.46323   0.00000  Uiso   1.00
C4243  C     0.82519   0.72946   0.21395   0.00000  Uiso   1.00
C4244  C     0.66795   0.82537   0.49203   0.00000  Uiso   1.00
C4245  C     0.65699   0.81083   0.51423   0.00000  Uiso   1.00
C4246  C     0.70077   0.84655   0.52227   0.00000  Uiso   1.00
C4247  C     0.66945   0.81299   0.53949   0.00000  Uiso   1.00
C4248  C     0.69174   0.84127   0.49632   0.00000  Uiso   1.00
H4249  H     0.59194   0.85260   0.62166   0.00000  Uiso   1.00
C4250  C     0.68847   0.83409   0.54421   0.00000  Uiso   1.00
O4251  O     0.66122   0.79397   0.55969   0.00000  Uiso   1.00
C4252  C     0.71949   0.86707   0.52796   0.00000  Uiso   1.00
C4253  C     0.63523   0.79195   0.50945   0.00000  Uiso   1.00
C4254  C     0.67579   0.79607   0.58435   0.00000  Uiso   1.00
O4255  O     0.69845   0.83866   0.57053   0.00000  Uiso   1.00
N4256  N     0.73580   0.88336   0.53405   0.00000  Uiso   1.00
C4257  C     0.68989   0.81993   0.58983   0.00000  Uiso   1.00
C4258  C     0.69959   0.80921   0.66620   0.00000  Uiso   1.00
C4259  C     0.69623   0.82524   0.61685   0.00000  Uiso   1.00
C4260  C     0.59880   0.94166   0.49961   0.00000  Uiso   1.00
H4261  H     0.73444   0.82230   0.68984   0.00000  Uiso   1.00
C4262  C     0.72634   0.82238   0.66825   0.00000  Uiso   1.00
H4263  H     0.57576   0.79030   0.47326   0.00000  Uiso   1.00
C4264  C     0.84480   0.86820   0.69197   0.00000  Uiso   1.00
C4265  C     0.87753   0.86813   0.65563   0.00000  Uiso   1.00
H4266  H     0.86247   0.79115   0.52350   0.00000  Uiso   1.00
C4267  C     0.79891   0.81570   0.53175   0.00000  Uiso   1.00
C4268  C     0.58648   0.85625   0.66717   0.00000  Uiso   1.00
O4269  O     0.65545   0.82436   0.46607   0.00000  Uiso   1.00
H4270  H     0.85340   0.72921   0.48000   0.00000  Uiso   1.00
H4271  H     0.61213   0.85452   0.47724   0.00000  Uiso   1.00
H4272  H     0.76647   0.73446   0.68237   0.00000  Uiso   1.00
H4273  H     0.67773   0.84764   0.67354   0.00000  Uiso   1.00
O4274  O     0.86641   0.89020   0.61191   0.00000  Uiso   1.00
C4275  C     0.74194   0.89507   0.61597   0.00000  Uiso   1.00
H4276  H     0.70894   0.77267   0.53396   0.00000  Uiso   1.00
C4277  C     0.55803   0.88291   0.47768   0.00000  Uiso   1.00
C4278  C     0.80290   0.90766   0.55842   0.00000  Uiso   1.00
C4279  C     0.60504   0.85166   0.69141   0.00000  Uiso   1.00
H4280  H     0.73048   0.75237   0.62389   0.00000  Uiso   1.00
C4281  C     0.77021   0.91098   0.46544   0.00000  Uiso   1.00
H4282  H     0.70509   0.84536   0.62151   0.00000  Uiso   1.00
H4283  H     0.71549   0.76346   0.56853   0.00000  Uiso   1.00
C4284  C     0.79116   0.92938   0.57304   0.00000  Uiso   1.00
H4285  H     0.78732   0.73540   0.55664   0.00000  Uiso   1.00
H4286  H     0.84643   0.73483   0.69974   0.00000  Uiso   1.00
C4287  C     0.71983   0.75801   0.54747   0.00000  Uiso   1.00
C4288  C     0.69319   0.80658   0.63714   0.00000  Uiso   1.00
C4289  C     0.76842   0.92545   0.58916   0.00000  Uiso   1.00
H4290  H     0.61757   0.83447   0.64112   0.00000  Uiso   1.00
H4291  H     0.85649   0.76467   0.46990   0.00000  Uiso   1.00
H4292  H     0.82728   0.76120   0.51318   0.00000  Uiso   1.00
C4293  C     0.86021   0.88380   0.63984   0.00000  Uiso   1.00
H4294  H     0.74216   0.76813   0.65282   0.00000  Uiso   1.00
H4295  H     0.60957   0.93709   0.51884   0.00000  Uiso   1.00
C4296  C     0.60475   0.85265   0.64249   0.00000  Uiso   1.00
H4297  H     0.76116   0.91532   0.71206   0.00000  Uiso   1.00
C4298  C     0.68440   0.73462   0.65498   0.00000  Uiso   1.00
C4299  C     0.78351   0.78761   0.48138   0.00000  Uiso   1.00
C4300  C     0.76318   0.78669   0.54863   0.00000  Uiso   1.00
H4301  H     0.68407   0.82753   0.70387   0.00000  Uiso   1.00
C4302  C     0.72720   0.75254   0.64545   0.00000  Uiso   1.00
C4303  C     0.78978   0.83551   0.54953   0.00000  Uiso   1.00
H4304  H     0.73715   0.73640   0.70136   0.00000  Uiso   1.00
C4305  C     0.56326   0.80915   0.66404   0.00000  Uiso   1.00
H4306  H     0.67692   0.77547   0.68574   0.00000  Uiso   1.00
H4307  H     0.76371   0.74739   0.58228   0.00000  Uiso   1.00
C4308  C     0.87323   0.77327   0.52809   0.00000  Uiso   1.00
C4309  C     0.82765   0.88462   0.67657   0.00000  Uiso   1.00
C4310  C     0.82351   0.91184   0.53759   0.00000  Uiso   1.00
H4311  H     0.57475   0.88638   0.53296   0.00000  Uiso   1.00
C4312  C     0.76993   0.83102   0.56972   0.00000  Uiso   1.00
O4313  O     0.76115   0.85095   0.58831   0.00000  Uiso   1.00
C4314  C     0.81986   0.91336   0.63802   0.00000  Uiso   1.00
C4315  C     0.77184   0.87702   0.58354   0.00000  Uiso   1.00
H4316  H     0.86464   0.76635   0.54681   0.00000  Uiso   1.00
C4317  C     0.83562   0.89266   0.65205   0.00000  Uiso   1.00
C4318  C     0.67917   0.82716   0.68128   0.00000  Uiso   1.00
C4319  C     0.75098   0.75824   0.54230   0.00000  Uiso   1.00
H4320  H     0.76087   0.73413   0.50650   0.00000  Uiso   1.00
C4321  C     0.68821   0.78057   0.62877   0.00000  Uiso   1.00
C4322  C     0.77320   0.81434   0.47778   0.00000  Uiso   1.00
C4323  C     0.57104   0.88268   0.66618   0.00000  Uiso   1.00
H4324  H     0.87455   0.72363   0.59437   0.00000  Uiso   1.00
H4325  H     0.62574   0.85848   0.68826   0.00000  Uiso   1.00
O4326  O     0.75395   0.94746   0.60143   0.00000  Uiso   1.00
C4327  C     0.79241   0.88228   0.56350   0.00000  Uiso   1.00
C4328  C     0.80893   0.75197   0.50320   0.00000  Uiso   1.00
N4329  N     0.61724   0.77757   0.50758   0.00000  Uiso   1.00
H4330  H     0.86949   0.75700   0.51283   0.00000  Uiso   1.00
N4331  N     0.80857   0.93004   0.62648   0.00000  Uiso   1.00
C4332  C     0.57653   0.94320   0.62637   0.00000  Uiso   1.00
C4333  C     0.73234   0.72482   0.65666   0.00000  Uiso   1.00
C4334  C     0.61021   0.87585   0.47283   0.00000  Uiso   1.00
N4335  N     0.72411   0.89085   0.63229   0.00000  Uiso   1.00
C4336  C     0.75661   0.80575   0.56989   0.00000  Uiso   1.00
C4337  C     0.55065   0.93140   0.58542   0.00000  Uiso   1.00
H4338  H     0.58982   0.85837   0.51812   0.00000  Uiso   1.00
C4339  C     0.58551   0.92044   0.48514   0.00000  Uiso   1.00
H4340  H     0.74103   0.76394   0.49919   0.00000  Uiso   1.00
H4341  H     0.81743   0.82059   0.52136   0.00000  Uiso   1.00
H4342  H     0.60680   0.82930   0.69566   0.00000  Uiso   1.00
H4343  H     0.76154   0.82392   0.49410   0.00000  Uiso   1.00
C4344  C     0.69694   0.77949   0.67575   0.00000  Uiso   1.00
H4345  H     0.64122   0.74150   0.64304   0.00000  Uiso   1.00
H4346  H     0.80500   0.73202   0.51395   0.00000  Uiso   1.00
H4347  H     0.71039   0.73932   0.54007   0.00000  Uiso   1.00
C4348  C     0.86909   0.85924   0.68106   0.00000  Uiso   1.00
C4349  C     0.84443   0.74565   0.46671   0.00000  Uiso   1.00
C4350  C     0.67676   0.77521   0.60342   0.00000  Uiso   1.00
C4351  C     0.55269   0.71945   0.69518   0.00000  Uiso   1.00
H4352  H     0.73863   0.80113   0.58266   0.00000  Uiso   1.00
H4353  H     0.58325   0.90095   0.67237   0.00000  Uiso   1.00
C4354  C     0.81483   0.74927   0.47227   0.00000  Uiso   1.00
H4355  H     0.71017   0.77565   0.69414   0.00000  Uiso   1.00
O4356  O     0.80329   0.85950   0.54798   0.00000  Uiso   1.00
C4357  C     0.65800   0.72778   0.65148   0.00000  Uiso   1.00
H4358  H     0.72583   0.84458   0.66385   0.00000  Uiso   1.00
H4359  H     0.61704   0.87190   0.63982   0.00000  Uiso   1.00
H4360  H     0.58136   0.79720   0.65951   0.00000  Uiso   1.00
C4361  C     0.76516   0.73852   0.56129   0.00000  Uiso   1.00
O4362  O     0.80305   0.89339   0.68512   0.00000  Uiso   1.00
C4363  C     0.69876   0.76160   0.65149   0.00000  Uiso   1.00
C4364  C     0.76181   0.89957   0.59748   0.00000  Uiso   1.00
N4365  N     0.84104   0.91394   0.52106   0.00000  Uiso   1.00
C4366  C     0.78418   0.79157   0.52999   0.00000  Uiso   1.00
O4367  O     0.80300   0.95504   0.56824   0.00000  Uiso   1.00
H4368  H     0.56677   0.88698   0.64426   0.00000  Uiso   1.00
C4369  C     0.75752   0.75524   0.51216   0.00000  Uiso   1.00
C4370  C     0.74550   0.72484   0.68552   0.00000  Uiso   1.00
O4371  O     0.70718   0.85094   0.47340   0.00000  Uiso   1.00
N4372  N     0.58893   0.93784   0.64566   0.00000  Uiso   1.00
C4373  C     0.59007   0.88058   0.51776   0.00000  Uiso   1.00
C4374  C     0.78483   0.77070   0.50753   0.00000  Uiso   1.00
H4375  H     0.66772   0.75530   0.60124   0.00000  Uiso   1.00
C4376  C     0.58602   0.88978   0.48864   0.00000  Uiso   1.00
H4377  H     0.65810   0.82056   0.68203   0.00000  Uiso   1.00
H4378  H     0.60903   0.88869   0.52722   0.00000  Uiso   1.00
H4379  H     0.73983   0.81140   0.65415   0.00000  Uiso   1.00
C4380  C     0.56176   0.83669   0.66896   0.00000  Uiso   1.00
C4381  C     0.79730   0.88816   0.71149   0.00000  Uiso   1.00
H4382  H     0.62942   0.88502   0.48331   0.00000  Uiso   1.00
H4383  H     0.55287   0.86223   0.47056   0.00000  Uiso   1.00
H4384  H     0.68270   0.90039   0.71153   0.00000  Uiso   1.00
C4385  C     0.56249   0.95103   0.60282   0.00000  Uiso   1.00
N4386  N     0.75553   0.91791   0.48230   0.00000  Uiso   1.00
H4387  H     0.75764   0.71660   0.55987   0.00000  Uiso   1.00
O4388  O     0.55086   0.90308   0.59162   0.00000  Uiso   1.00
H4389  H     0.57165   0.94232   0.70028   0.00000  Uiso   1.00
H4390  H     0.59894   0.86095   0.71037   0.00000  Uiso   1.00
C4391  C     0.70389   0.71420   0.66085   0.00000  Uiso   1.00
H4392  H     0.77736   0.72984   0.46645   0.00000  Uiso   1.00
H4393  H     0.57822   0.75657   0.74803   0.00000  Uiso   1.00
C4394  C     0.85104   0.74246   0.81789   0.00000  Uiso   1.00
H4395  H     0.68158   0.74586   0.84973   0.00000  Uiso   1.00
H4396  H     0.66137   0.89003   0.78509   0.00000  Uiso   1.00
H4397  H     0.68599   0.91464   0.79957   0.00000  Uiso   1.00
C4398  C     0.67241   0.90133   0.73069   0.00000  Uiso   1.00
C4399  C     0.67863   0.75860   0.86845   0.00000  Uiso   1.00
C4400  C     0.84704   0.74580   0.76808   0.00000  Uiso   1.00
C4401  C     0.56614   0.87222   0.90059   0.00000  Uiso   1.00
C4402  C     0.63264   0.77512   0.88549   0.00000  Uiso   1.00
H4403  H     0.62460   0.77559   0.86435   0.00000  Uiso   1.00
C4404  C     0.70231   0.75708   0.88990   0.00000  Uiso   1.00
N4405  N     0.70349   0.84131   0.85248   0.00000  Uiso   1.00
C4406  C     0.88038   0.91390   0.75163   0.00000  Uiso   1.00
H4407  H     0.77567   0.82705   0.96163   0.00000  Uiso   1.00
H4408  H     0.81739   0.86752   0.93036   0.00000  Uiso   1.00
H4409  H     0.65871   0.92489   0.77830   0.00000  Uiso   1.00
C4410  C     0.72845   0.74293   0.87860   0.00000  Uiso   1.00
H4411  H     0.57458   0.77391   0.94880   0.00000  Uiso   1.00
O4412  O     0.83752   0.86039   0.71812   0.00000  Uiso   1.00
C4413  C     0.55911   0.85267   0.91902   0.00000  Uiso   1.00
H4414  H     0.80717   0.86181   0.81420   0.00000  Uiso   1.00
H4415  H     0.85708   0.88624   0.93880   0.00000  Uiso   1.00
C4416  C     0.71180   0.78562   0.89648   0.00000  Uiso   1.00
H4417  H     0.78903   0.77631   0.86429   0.00000  Uiso   1.00
H4418  H     0.76015   0.91893   0.80062   0.00000  Uiso   1.00
H4419  H     0.72369   0.73538   0.94228   0.00000  Uiso   1.00
C4420  C     0.85465   0.89752   0.95748   0.00000  Uiso   1.00
C4421  C     0.69129   0.90584   0.75508   0.00000  Uiso   1.00
H4422  H     0.56259   0.88218   0.71941   0.00000  Uiso   1.00
C4423  C     0.79509   0.88163   0.81436   0.00000  Uiso   1.00
C4424  C     0.60952   0.87535   0.81581   0.00000  Uiso   1.00
H4425  H     0.60894   0.86001   0.75469   0.00000  Uiso   1.00
N4426  N     0.79298   0.91376   0.90494   0.00000  Uiso   1.00
C4427  C     0.73649   0.83527   0.90328   0.00000  Uiso   1.00
H4428  H     0.60089   0.82312   0.79273   0.00000  Uiso   1.00
H4429  H     0.86071   0.87626   0.87046   0.00000  Uiso   1.00
H4430  H     0.79305   0.94807   0.80751   0.00000  Uiso   1.00
H4431  H     0.76480   0.92471   0.84847   0.00000  Uiso   1.00
C4432  C     0.85870   0.73776   0.86580   0.00000  Uiso   1.00
C4433  C     0.66716   0.92917   0.86566   0.00000  Uiso   1.00
H4434  H     0.75965   0.78549   0.83137   0.00000  Uiso   1.00
H4435  H     0.74033   0.84153   0.78598   0.00000  Uiso   1.00
C4436  C     0.73146   0.93090   0.75794   0.00000  Uiso   1.00
C4437  C     0.74947   0.94180   0.85096   0.00000  Uiso   1.00
H4438  H     0.72444   0.77514   0.83246   0.00000  Uiso   1.00
C4439  C     0.67350   0.88143   0.86741   0.00000  Uiso   1.00
C4440  C     0.59129   0.87108   0.76540   0.00000  Uiso   1.00
C4441  C     0.58866   0.86420   0.79688   0.00000  Uiso   1.00
H4442  H     0.62275   0.73952   0.93598   0.00000  Uiso   1.00
N4443  N     0.82531   0.79030   0.89596   0.00000  Uiso   1.00
C4444  C     0.84087   0.75498   0.79462   0.00000  Uiso   1.00
H4445  H     0.80020   0.74118   0.71581   0.00000  Uiso   1.00
H4446  H     0.59093   0.83023   0.82531   0.00000  Uiso   1.00
H4447  H     0.67668   0.78084   0.85957   0.00000  Uiso   1.00
C4448  C     0.55959   0.87456   0.80486   0.00000  Uiso   1.00
H4449  H     0.60443   0.86899   0.83627   0.00000  Uiso   1.00
C4450  C     0.77073   0.87674   0.79422   0.00000  Uiso   1.00
O4451  O     0.73883   0.95805   0.92798   0.00000  Uiso   1.00
H4452  H     0.82315   0.79739   0.74997   0.00000  Uiso   1.00
C4453  C     0.57841   0.83474   0.92889   0.00000  Uiso   1.00
H4454  H     0.67358   0.95844   0.73207   0.00000  Uiso   1.00
C4455  C     0.77759   0.76140   0.87624   0.00000  Uiso   1.00
H4456  H     0.73579   0.89755   0.81052   0.00000  Uiso   1.00
C4457  C     0.72275   0.93633   0.85641   0.00000  Uiso   1.00
H4458  H     0.59345   0.89340   0.76424   0.00000  Uiso   1.00
H4459  H     0.79779   0.81843   0.93448   0.00000  Uiso   1.00
C4460  C     0.59222   0.87529   0.89428   0.00000  Uiso   1.00
C4461  C     0.74048   0.90233   0.76407   0.00000  Uiso   1.00
C4462  C     0.66266   0.89545   0.93512   0.00000  Uiso   1.00
C4463  C     0.69061   0.89927   0.92991   0.00000  Uiso   1.00
H4464  H     0.78439   0.74111   0.87018   0.00000  Uiso   1.00
C4465  C     0.60447   0.83480   0.91816   0.00000  Uiso   1.00
C4466  C     0.61166   0.85410   0.89904   0.00000  Uiso   1.00
O4467  O     0.69496   0.85071   0.92631   0.00000  Uiso   1.00
C4468  C     0.70722   0.87714   0.92582   0.00000  Uiso   1.00
H4469  H     0.67823   0.80093   0.91912   0.00000  Uiso   1.00
C4470  C     0.86417   0.73497   0.91417   0.00000  Uiso   1.00
H4471  H     0.64493   0.79297   0.89087   0.00000  Uiso   1.00
H4472  H     0.62018   0.81963   0.92620   0.00000  Uiso   1.00
H4473  H     0.78951   0.75562   0.74811   0.00000  Uiso   1.00
C4474  C     0.67382   0.90872   0.78104   0.00000  Uiso   1.00
H4475  H     0.82654   0.77192   0.79638   0.00000  Uiso   1.00
H4476  H     0.84932   0.82246   0.93783   0.00000  Uiso   1.00
O4477  O     0.63684   0.85371   0.88760   0.00000  Uiso   1.00
C4478  C     0.71354   0.88593   0.75626   0.00000  Uiso   1.00
H4479  H     0.78936   0.88492   0.83588   0.00000  Uiso   1.00
C4480  C     0.65160   0.75053   0.88451   0.00000  Uiso   1.00
C4481  C     0.69029   0.74376   0.91582   0.00000  Uiso   1.00
H4482  H     0.62958   0.86576   0.81235   0.00000  Uiso   1.00
C4483  C     0.73352   0.88184   0.91572   0.00000  Uiso   1.00
C4484  C     0.63884   0.92585   0.86785   0.00000  Uiso   1.00
O4485  O     0.60043   0.89821   0.88046   0.00000  Uiso   1.00
C4486  C     0.80730   0.86782   0.75420   0.00000  Uiso   1.00
C4487  C     0.68892   0.85898   0.85939   0.00000  Uiso   1.00
C4488  C     0.62767   0.90029   0.87324   0.00000  Uiso   1.00
C4489  C     0.74368   0.90838   0.91820   0.00000  Uiso   1.00
H4490  H     0.61117   0.89819   0.81642   0.00000  Uiso   1.00
C4491  C     0.83515   0.75414   0.73925   0.00000  Uiso   1.00
C4492  C     0.64641   0.87868   0.87639   0.00000  Uiso   1.00
C4493  C     0.75142   0.89988   0.79389   0.00000  Uiso   1.00
O4494  O     0.67736   0.95480   0.86232   0.00000  Uiso   1.00
C4495  C     0.73740   0.78907   0.88656   0.00000  Uiso   1.00
C4496  C     0.70185   0.73218   0.93952   0.00000  Uiso   1.00
C4497  C     0.70018   0.92634   0.93034   0.00000  Uiso   1.00
C4498  C     0.83732   0.77033   0.89475   0.00000  Uiso   1.00
C4499  C     0.68475   0.90644   0.86355   0.00000  Uiso   1.00
C4500  C     0.78261   0.87772   0.76504   0.00000  Uiso   1.00
C4501  C     0.57885   0.77849   0.75232   0.00000  Uiso   1.00
H4502  H     0.63229   0.72954   0.85245   0.00000  Uiso   1.00
C4503  C     0.55899   0.79015   0.94136   0.00000  Uiso   1.00
C4504  C     0.81273   0.86707   0.95302   0.00000  Uiso   1.00
C4505  C     0.74796   0.76579   0.86920   0.00000  Uiso   1.00
C4506  C     0.62300   0.94890   0.86904   0.00000  Uiso   1.00
H4507  H     0.65725   0.91828   0.72849   0.00000  Uiso   1.00
O4508  O     0.71247   0.90954   0.85869   0.00000  Uiso   1.00
H4509  H     0.62208   0.71548   0.88159   0.00000  Uiso   1.00
H4510  H     0.74925   0.74941   0.82848   0.00000  Uiso   1.00
C4511  C     0.69943   0.80458   0.91162   0.00000  Uiso   1.00
C4512  C     0.72797   0.93163   0.92531   0.00000  Uiso   1.00
H4513  H     0.81846   0.85071   0.76675   0.00000  Uiso   1.00
C4514  C     0.70431   0.95895   0.85708   0.00000  Uiso   1.00
H4515  H     0.83767   0.92743   0.91362   0.00000  Uiso   1.00
O4516  O     0.86140   0.93343   0.74450   0.00000  Uiso   1.00
C4517  C     0.64577   0.73697   0.93635   0.00000  Uiso   1.00
H4518  H     0.72370   0.72750   0.86111   0.00000  Uiso   1.00
C4519  C     0.70967   0.83038   0.91456   0.00000  Uiso   1.00
C4520  C     0.65737   0.72656   0.95973   0.00000  Uiso   1.00
C4521  C     0.87560   0.86139   0.87652   0.00000  Uiso   1.00
C4522  C     0.77056   0.91144   0.91090   0.00000  Uiso   1.00
H4523  H     0.87074   0.86310   0.82469   0.00000  Uiso   1.00
O4524  O     0.68082   0.94681   0.93673   0.00000  Uiso   1.00
H4525  H     0.80878   0.89795   0.80825   0.00000  Uiso   1.00
C4526  C     0.66116   0.74339   0.91417   0.00000  Uiso   1.00
H4527  H     0.66390   0.88038   0.73374   0.00000  Uiso   1.00
H4528  H     0.77053   0.81741   0.88153   0.00000  Uiso   1.00
H4529  H     0.55038   0.95763   0.72628   0.00000  Uiso   1.00
O4530  O     0.74887   0.86087   0.90563   0.00000  Uiso   1.00
C4531  C     0.74962   0.81419   0.89035   0.00000  Uiso   1.00
C4532  C     0.74512   0.76921   0.83858   0.00000  Uiso   1.00
C4533  C     0.85387   0.93819   0.92580   0.00000  Uiso   1.00
H4534  H     0.77179   0.83246   0.79843   0.00000  Uiso   1.00
H4535  H     0.57376   0.93159   0.73368   0.00000  Uiso   1.00
H4536  H     0.61467   0.77476   0.89897   0.00000  Uiso   1.00
C4537  C     0.86855   0.71997   0.81423   0.00000  Uiso   1.00
N4538  N     0.63968   0.89180   0.93835   0.00000  Uiso   1.00
C4539  C     0.58537   0.83366   0.80307   0.00000  Uiso   1.00
C4540  C     0.85473   0.73835   0.72026   0.00000  Uiso   1.00
C4541  C     0.83609   0.78542   0.73469   0.00000  Uiso   1.00
H4542  H     0.77932   0.76473   0.89828   0.00000  Uiso   1.00
H4543  H     0.59627   0.78444   0.76513   0.00000  Uiso   1.00
H4544  H     0.81691   0.94462   0.83535   0.00000  Uiso   1.00
C4545  C     0.75656   0.84802   0.79946   0.00000  Uiso   1.00
C4546  C     0.55250   0.78680   0.76536   0.00000  Uiso   1.00
H4547  H     0.88021   0.86247   0.89762   0.00000  Uiso   1.00
H4548  H     0.57192   0.86584   0.75355   0.00000  Uiso   1.00
O4549  O     0.84480   0.75124   0.84328   0.00000  Uiso   1.00
H4550  H     0.76781   0.95316   0.76618   0.00000  Uiso   1.00
C4551  C     0.74657   0.95522   0.75843   0.00000  Uiso   1.00
H4552  H     0.74059   0.73246   0.89483   0.00000  Uiso   1.00
H4553  H     0.80367   0.72336   0.74791   0.00000  Uiso   1.00
H4554  H     0.74643   0.84703   0.82070   0.00000  Uiso   1.00
H4555  H     0.80083   0.95547   0.87612   0.00000  Uiso   1.00
H4556  H     0.85298   0.96160   0.92325   0.00000  Uiso   1.00
C4557  C     0.56533   0.81796   0.95139   0.00000  Uiso   1.00
C4558  C     0.85296   0.92881   0.95503   0.00000  Uiso   1.00
C4559  C     0.81486   0.87271   0.72840   0.00000  Uiso   1.00
O4560  O     0.85924   0.74458   0.94164   0.00000  Uiso   1.00
H4561  H     0.70965   0.86791   0.76800   0.00000  Uiso   1.00
H4562  H     0.86904   0.91153   0.79447   0.00000  Uiso   1.00
C4563  C     0.76614   0.89428   0.74959   0.00000  Uiso   1.00
C4564  C     0.85297   0.74739   0.89208   0.00000  Uiso   1.00
C4565  C     0.80710   0.95943   0.82215   0.00000  Uiso   1.00
H4566  H     0.79015   0.86865   0.95573   0.00000  Uiso   1.00
C4567  C     0.80599   0.74360   0.73749   0.00000  Uiso   1.00
C4568  C     0.70391   0.93312   0.75013   0.00000  Uiso   1.00
H4569  H     0.86369   0.84282   0.87544   0.00000  Uiso   1.00
H4570  H     0.56240   0.92060   0.80534   0.00000  Uiso   1.00
N4571  N     0.57845   0.73351   0.90501   0.00000  Uiso   1.00
C4572  C     0.86700   0.94829   0.72046   0.00000  Uiso   1.00
H4573  H     0.58342   0.78649   0.73176   0.00000  Uiso   1.00
H4574  H     0.85728   0.79389   0.73817   0.00000  Uiso   1.00
H4575  H     0.82764   0.79231   0.71612   0.00000  Uiso   1.00
C4576  C     0.86395   0.72340   0.76407   0.00000  Uiso   1.00
H4577  H     0.71597   0.87796   0.73541   0.00000  Uiso   1.00
C4578  C     0.63951   0.72473   0.87173   0.00000  Uiso   1.00
H4579  H     0.55188   0.88918   0.89266   0.00000  Uiso   1.00
C4580  C     0.69611   0.95684   0.73676   0.00000  Uiso   1.00
C4581  C     0.79683   0.82000   0.95666   0.00000  Uiso   1.00
C4582  C     0.55878   0.93824   0.71829   0.00000  Uiso   1.00
C4583  C     0.87223   0.73241   0.96244   0.00000  Uiso   1.00
C4584  C     0.55048   0.81861   0.76858   0.00000  Uiso   1.00
C4585  C     0.84561   0.82690   0.96046   0.00000  Uiso   1.00
H4586  H     0.87233   0.75227   0.71590   0.00000  Uiso   1.00
H4587  H     0.55792   0.78685   0.92002   0.00000  Uiso   1.00
H4588  H     0.56382   0.82750   0.75362   0.00000  Uiso   1.00
C4589  C     0.55633   0.82563   0.79864   0.00000  Uiso   1.00
C4590  C     0.55002   0.90110   0.80902   0.00000  Uiso   1.00
C4591  C     0.68528   0.72229   0.96019   0.00000  Uiso   1.00
H4592  H     0.87282   0.93157   0.91518   0.00000  Uiso   1.00
C4593  C     0.77403   0.90029   0.72298   0.00000  Uiso   1.00
C4594  C     0.87603   0.71498   0.86148   0.00000  Uiso   1.00
O4595  O     0.75015   0.94729   1.00573   0.00000  Uiso   1.00
C4596  C     0.63745   0.92787   1.18444   0.00000  Uiso   1.00
H4597  H     0.54720   0.85351   0.96803   0.00000  Uiso   1.00
C4598  C     0.77303   0.86074   1.18577   0.00000  Uiso   1.00
H4599  H     0.85503   0.81408   1.09278   0.00000  Uiso   1.00
C4600  C     0.60815   0.79606   1.09585   0.00000  Uiso   1.00
O4601  O     0.87753   0.85646   1.06743   0.00000  Uiso   1.00
C4602  C     0.82610   0.87388   0.99697   0.00000  Uiso   1.00
C4603  C     0.81633   0.84692   0.99631   0.00000  Uiso   1.00
C4604  C     0.55389   0.79120   1.17462   0.00000  Uiso   1.00
C4605  C     0.65321   0.90255   1.19188   0.00000  Uiso   1.00
N4606  N     0.69879   0.81921   1.12309   0.00000  Uiso   1.00
H4607  H     0.61897   0.92206   1.17308   0.00000  Uiso   1.00
C4608  C     0.61971   0.89706   0.99738   0.00000  Uiso   1.00
O4609  O     0.58839   0.80750   1.07872   0.00000  Uiso   1.00
C4610  C     0.82380   0.76266   1.08541   0.00000  Uiso   1.00
C4611  C     0.79879   0.95428   1.18359   0.00000  Uiso   1.00
H4612  H     0.83689   0.90778   1.02195   0.00000  Uiso   1.00
H4613  H     0.81555   0.77644   1.07157   0.00000  Uiso   1.00
C4614  C     0.63828   0.92289   1.03850   0.00000  Uiso   1.00
H4615  H     0.58777   0.94109   1.03646   0.00000  Uiso   1.00
H4616  H     0.86134   0.71508   1.06663   0.00000  Uiso   1.00
C4617  C     0.75731   0.89599   1.10973   0.00000  Uiso   1.00
C4618  C     0.62867   0.74255   1.17604   0.00000  Uiso   1.00
O4619  O     0.64454   0.82256   1.07634   0.00000  Uiso   1.00
C4620  C     0.59560   0.83242   1.06941   0.00000  Uiso   1.00
C4621  C     0.62358   0.83874   1.06465   0.00000  Uiso   1.00
C4622  C     0.78253   0.93430   1.19427   0.00000  Uiso   1.00
H4623  H     0.85275   0.75874   0.99093   0.00000  Uiso   1.00
C4624  C     0.78824   0.90632   1.19079   0.00000  Uiso   1.00
C4625  C     0.79581   0.88263   1.08312   0.00000  Uiso   1.00
C4626  C     0.57572   0.85241   1.06601   0.00000  Uiso   1.00
C4627  C     0.63055   0.86129   1.04988   0.00000  Uiso   1.00
H4628  H     0.63939   0.88586   0.99712   0.00000  Uiso   1.00
O4629  O     0.87439   0.72762   1.21025   0.00000  Uiso   1.00
H4630  H     0.63537   0.93085   1.05956   0.00000  Uiso   1.00
C4631  C     0.65103   0.79971   1.11818   0.00000  Uiso   1.00
N4632  N     0.70870   0.92332   1.06262   0.00000  Uiso   1.00
H4633  H     0.84215   0.94972   1.11971   0.00000  Uiso   1.00
C4634  C     0.78127   0.91770   0.98299   0.00000  Uiso   1.00
C4635  C     0.55147   0.94853   1.11585   0.00000  Uiso   1.00
C4636  C     0.77315   0.94368   0.99118   0.00000  Uiso   1.00
C4637  C     0.78593   0.80785   1.16778   0.00000  Uiso   1.00
C4638  C     0.66673   0.75937   1.20309   0.00000  Uiso   1.00
H4639  H     0.85002   0.91157   1.16022   0.00000  Uiso   1.00
H4640  H     0.80005   0.73689   1.13652   0.00000  Uiso   1.00
O4641  O     0.55926   0.71864   0.97026   0.00000  Uiso   1.00
C4642  C     0.62361   0.72206   1.19421   0.00000  Uiso   1.00
C4643  C     0.61050   0.88020   1.04561   0.00000  Uiso   1.00
H4644  H     0.55505   0.84517   1.07305   0.00000  Uiso   1.00
N4645  N     0.79229   0.95319   1.09034   0.00000  Uiso   1.00
C4646  C     0.58463   0.87782   1.05692   0.00000  Uiso   1.00
C4647  C     0.61279   0.90653   1.02847   0.00000  Uiso   1.00
O4648  O     0.65768   0.77835   1.15872   0.00000  Uiso   1.00
C4649  C     0.67857   0.92620   1.15593   0.00000  Uiso   1.00
C4650  C     0.59478   0.84866   1.19515   0.00000  Uiso   1.00
H4651  H     0.81074   0.74427   1.08770   0.00000  Uiso   1.00
C4652  C     0.77836   0.73934   1.14425   0.00000  Uiso   1.00
C4653  C     0.57262   0.90700   1.05825   0.00000  Uiso   1.00
C4654  C     0.57879   0.92284   1.08412   0.00000  Uiso   1.00
H4655  H     0.83851   0.73221   1.04586   0.00000  Uiso   1.00
H4656  H     0.57877   0.90819   1.10199   0.00000  Uiso   1.00
H4657  H     0.56760   0.95886   1.12541   0.00000  Uiso   1.00
N4658  N     0.75777   0.74371   0.97648   0.00000  Uiso   1.00
C4659  C     0.67435   0.90105   1.16685   0.00000  Uiso   1.00
C4660  C     0.61436   0.86446   1.18293   0.00000  Uiso   1.00
H4661  H     0.61407   0.86609   1.15978   0.00000  Uiso   1.00
C4662  C     0.60155   0.77424   1.11217   0.00000  Uiso   1.00
H4663  H     0.86345   0.84030   0.96734   0.00000  Uiso   1.00
C4664  C     0.75803   0.72082   1.14003   0.00000  Uiso   1.00
C4665  C     0.86600   0.80818   1.07535   0.00000  Uiso   1.00
C4666  C     0.63352   0.87898   1.19864   0.00000  Uiso   1.00
C4667  C     0.80864   0.91449   0.97315   0.00000  Uiso   1.00
H4668  H     0.62715   0.93850   1.13356   0.00000  Uiso   1.00
C4669  C     0.69221   0.88012   1.15926   0.00000  Uiso   1.00
H4670  H     0.69099   0.86119   1.17070   0.00000  Uiso   1.00
O4671  O     0.79262   0.78155   1.15934   0.00000  Uiso   1.00
C4672  C     0.73158   0.84382   1.20563   0.00000  Uiso   1.00
H4673  H     0.76348   0.94037   1.20576   0.00000  Uiso   1.00
H4674  H     0.62035   0.91601   0.98546   0.00000  Uiso   1.00
N4675  N     0.74986   0.79877   1.09725   0.00000  Uiso   1.00
C4676  C     0.57891   0.75938   1.10574   0.00000  Uiso   1.00
O4677  O     0.74000   0.91813   1.11651   0.00000  Uiso   1.00
C4678  C     0.81216   0.84693   1.04416   0.00000  Uiso   1.00
H4679  H     0.80445   0.80973   1.02059   0.00000  Uiso   1.00
H4680  H     0.60245   0.88543   0.99035   0.00000  Uiso   1.00
C4681  C     0.76527   0.84902   1.09854   0.00000  Uiso   1.00
H4682  H     0.60268   0.80991   0.97281   0.00000  Uiso   1.00
C4683  C     0.72352   0.94113   1.05725   0.00000  Uiso   1.00
H4684  H     0.76810   0.89923   0.98672   0.00000  Uiso   1.00
C4685  C     0.65545   0.94546   1.16590   0.00000  Uiso   1.00
C4686  C     0.78746   0.85540   1.08310   0.00000  Uiso   1.00
H4687  H     0.58852   0.84026   0.98328   0.00000  Uiso   1.00
C4688  C     0.73033   0.72654   1.14714   0.00000  Uiso   1.00
H4689  H     0.86861   0.89125   0.97253   0.00000  Uiso   1.00
C4690  C     0.75683   0.82213   1.09895   0.00000  Uiso   1.00
C4691  C     0.81214   0.89792   1.17627   0.00000  Uiso   1.00
C4692  C     0.81246   0.83171   1.02014   0.00000  Uiso   1.00
H4693  H     0.57137   0.80912   0.99419   0.00000  Uiso   1.00
H4694  H     0.82110   0.77430   1.10537   0.00000  Uiso   1.00
C4695  C     0.83218   0.88573   1.02138   0.00000  Uiso   1.00
H4696  H     0.70496   0.95314   1.13572   0.00000  Uiso   1.00
C4697  C     0.70091   0.93218   1.14053   0.00000  Uiso   1.00
C4698  C     0.56724   0.80985   1.19078   0.00000  Uiso   1.00
C4699  C     0.72488   0.75141   1.15865   0.00000  Uiso   1.00
C4700  C     0.77487   0.72809   0.97803   0.00000  Uiso   1.00
C4701  C     0.74996   0.86806   1.11308   0.00000  Uiso   1.00
C4702  C     0.85338   0.75755   1.07975   0.00000  Uiso   1.00
H4703  H     0.87182   0.95847   1.19233   0.00000  Uiso   1.00
C4704  C     0.77217   0.76337   1.15750   0.00000  Uiso   1.00
C4705  C     0.75556   0.83890   1.19014   0.00000  Uiso   1.00
C4706  C     0.76058   0.81323   1.17922   0.00000  Uiso   1.00
O4707  O     0.57593   0.83485   1.17975   0.00000  Uiso   1.00
C4708  C     0.63370   0.80630   1.09631   0.00000  Uiso   1.00
C4709  C     0.54891   0.76469   1.18440   0.00000  Uiso   1.00
C4710  C     0.55844   0.94583   1.08531   0.00000  Uiso   1.00
O4711  O     0.72827   0.86179   1.13077   0.00000  Uiso   1.00
C4712  C     0.65161   0.76025   1.17971   0.00000  Uiso   1.00
O4713  O     0.79992   0.83517   1.06812   0.00000  Uiso   1.00
C4714  C     0.82215   0.87443   1.04432   0.00000  Uiso   1.00
O4715  O     0.64130   0.72013   0.98210   0.00000  Uiso   1.00
C4716  C     0.83092   0.82139   1.15359   0.00000  Uiso   1.00
C4717  C     0.79889   0.85323   1.17415   0.00000  Uiso   1.00
C4718  C     0.80574   0.82740   1.16477   0.00000  Uiso   1.00
O4719  O     0.81965   0.87152   1.17011   0.00000  Uiso   1.00
H4720  H     0.65526   0.90950   1.03976   0.00000  Uiso   1.00
C4721  C     0.77992   0.90268   1.09466   0.00000  Uiso   1.00
H4722  H     0.59974   0.93059   1.08270   0.00000  Uiso   1.00
N4723  N     0.56028   0.74637   1.09981   0.00000  Uiso   1.00
C4724  C     0.83048   0.91870   1.16835   0.00000  Uiso   1.00
C4725  C     0.86905   0.78097   1.06767   0.00000  Uiso   1.00
C4726  C     0.74529   0.76968   1.16357   0.00000  Uiso   1.00
H4727  H     0.75689   0.96105   1.13943   0.00000  Uiso   1.00
C4728  C     0.71321   0.88389   1.13889   0.00000  Uiso   1.00
H4729  H     0.70574   0.75871   1.16310   0.00000  Uiso   1.00
C4730  C     0.71829   0.91136   1.13247   0.00000  Uiso   1.00
H4731  H     0.65235   0.86635   1.04401   0.00000  Uiso   1.00
O4732  O     0.76830   0.88710   1.19651   0.00000  Uiso   1.00
C4733  C     0.58362   0.81956   0.97671   0.00000  Uiso   1.00
N4734  N     0.85118   0.81591   1.14336   0.00000  Uiso   1.00
O4735  O     0.73850   0.79388   1.17829   0.00000  Uiso   1.00
O4736  O     0.81945   0.89174   1.06849   0.00000  Uiso   1.00
C4737  C     0.78712   0.92971   1.09150   0.00000  Uiso   1.00
O4738  O     0.61061   0.74524   1.15357   0.00000  Uiso   1.00
C4739  C     0.58531   0.92055   1.03183   0.00000  Uiso   1.00
H4740  H     0.64439   0.93807   1.02339   0.00000  Uiso   1.00
H4741  H     0.75907   0.72296   1.07349   0.00000  Uiso   1.00
C4742  C     0.67717   0.81086   1.12099   0.00000  Uiso   1.00
H4743  H     0.57352   0.91797   1.01328   0.00000  Uiso   1.00
C4744  C     0.85863   0.73524   1.05713   0.00000  Uiso   1.00
C4745  C     0.63910   0.95595   1.14138   0.00000  Uiso   1.00
N4746  N     0.87193   0.91959   1.10271   0.00000  Uiso   1.00
H4747  H     0.67443   0.72219   1.14584   0.00000  Uiso   1.00
C4748  C     0.86753   0.74242   0.98901   0.00000  Uiso   1.00
C4749  C     0.61724   0.76647   1.13427   0.00000  Uiso   1.00
C4750  C     0.64203   0.78080   1.13673   0.00000  Uiso   1.00
C4751  C     0.54763   0.79767   1.14647   0.00000  Uiso   1.00
H4752  H     0.62805   0.93836   1.20211   0.00000  Uiso   1.00
C4753  C     0.82434   0.93647   0.96607   0.00000  Uiso   1.00
C4754  C     0.82360   0.94583   1.17114   0.00000  Uiso   1.00
H4755  H     0.68388   0.77190   1.20625   0.00000  Uiso   1.00
C4756  C     0.87464   0.94124   0.97385   0.00000  Uiso   1.00
H4757  H     0.68706   0.72160   1.11436   0.00000  Uiso   1.00
H4758  H     0.84847   0.80712   0.97078   0.00000  Uiso   1.00
H4759  H     0.86426   0.72625   1.11302   0.00000  Uiso   1.00
C4760  C     0.81427   0.96160   0.97041   0.00000  Uiso   1.00
H4761  H     0.87305   0.93141   0.99428   0.00000  Uiso   1.00
C4762  C     0.55656   0.75620   1.21037   0.00000  Uiso   1.00
C4763  C     0.82603   0.88891   0.96945   0.00000  Uiso   1.00
C4764  C     0.86814   0.74939   1.10640   0.00000  Uiso   1.00
H4765  H     0.86508   0.76460   1.12228   0.00000  Uiso   1.00
C4766  C     0.87776   0.82841   1.05854   0.00000  Uiso   1.00
C4767  C     0.81815   0.83951   0.96676   0.00000  Uiso   1.00
H4768  H     0.68341   0.95685   1.19688   0.00000  Uiso   1.00
H4769  H     0.80139   0.79961   0.96521   0.00000  Uiso   1.00
C4770  C     0.78905   0.99113   0.38524   0.00000  Uiso   1.00
C4771  C     0.84600   1.00481   0.32549   0.00000  Uiso   1.00
C4772  C     0.58307   1.20278   0.30994   0.00000  Uiso   1.00
H4773  H     0.63314   1.20233   0.43860   0.00000  Uiso   1.00
O4774  O     0.64408   0.98234   0.45941   0.00000  Uiso   1.00
C4775  C     0.55656   1.05281   0.44918   0.00000  Uiso   1.00
C4776  C     0.64383   1.19411   0.29942   0.00000  Uiso   1.00
H4777  H     0.83413   1.08441   0.27385   0.00000  Uiso   1.00
N4778  N     0.84793   1.08265   0.38113   0.00000  Uiso   1.00
C4779  C     0.78551   1.01073   0.40586   0.00000  Uiso   1.00
C4780  C     0.60225   0.98581   0.39852   0.00000  Uiso   1.00
C4781  C     0.78259   1.05136   0.44302   0.00000  Uiso   1.00
H4782  H     0.86821   0.98213   0.23891   0.00000  Uiso   1.00
O4783  O     0.64187   1.04218   0.44910   0.00000  Uiso   1.00
C4784  C     0.80239   1.03575   0.40466   0.00000  Uiso   1.00
N4785  N     0.60012   1.08219   0.40727   0.00000  Uiso   1.00
O4786  O     0.81291   0.97429   0.34668   0.00000  Uiso   1.00
H4787  H     0.57227   1.12269   0.35504   0.00000  Uiso   1.00
H4788  H     0.80428   1.01030   0.21844   0.00000  Uiso   1.00
H4789  H     0.55599   1.12333   0.32356   0.00000  Uiso   1.00
C4790  C     0.62866   1.02298   0.43316   0.00000  Uiso   1.00
N4791  N     0.58555   0.99735   0.21467   0.00000  Uiso   1.00
C4792  C     0.55176   1.17094   0.28999   0.00000  Uiso   1.00
H4793  H     0.59416   1.12470   0.32686   0.00000  Uiso   1.00
C4794  C     0.55264   1.18611   0.26542   0.00000  Uiso   1.00
O4795  O     0.76564   1.00701   0.42608   0.00000  Uiso   1.00
O4796  O     0.79812   1.05708   0.42173   0.00000  Uiso   1.00
C4797  C     0.56342   1.00368   0.36339   0.00000  Uiso   1.00
O4798  O     0.58850   0.96686   0.38223   0.00000  Uiso   1.00
C4799  C     0.70192   1.18379   0.22559   0.00000  Uiso   1.00
H4800  H     0.59933   1.18099   0.36872   0.00000  Uiso   1.00
C4801  C     0.60515   1.05999   0.41008   0.00000  Uiso   1.00
H4802  H     0.57697   1.14130   0.45972   0.00000  Uiso   1.00
C4803  C     0.56744   1.21064   0.26337   0.00000  Uiso   1.00
H4804  H     0.57275   1.18523   0.45190   0.00000  Uiso   1.00
H4805  H     0.61993   1.16867   0.43528   0.00000  Uiso   1.00
H4806  H     0.85302   1.07332   0.24477   0.00000  Uiso   1.00
C4807  C     0.61175   1.03182   0.41272   0.00000  Uiso   1.00
C4808  C     0.82399   1.01871   0.36438   0.00000  Uiso   1.00
C4809  C     0.85319   1.07523   0.26686   0.00000  Uiso   1.00
H4810  H     0.61758   1.16419   0.34255   0.00000  Uiso   1.00
O4811  O     0.57596   1.02426   0.38048   0.00000  Uiso   1.00
C4812  C     0.59646   1.01356   0.39732   0.00000  Uiso   1.00
C4813  C     0.55008   1.17111   0.35907   0.00000  Uiso   1.00
C4814  C     0.86911   0.98432   0.45204   0.00000  Uiso   1.00
C4815  C     0.62051   0.97678   0.41808   0.00000  Uiso   1.00
C4816  C     0.57139   0.97661   0.36257   0.00000  Uiso   1.00
C4817  C     0.86683   1.00768   0.30562   0.00000  Uiso   1.00
H4818  H     0.55619   1.16591   0.37896   0.00000  Uiso   1.00
C4819  C     0.57007   1.17727   0.31019   0.00000  Uiso   1.00
C4820  C     0.63084   1.21114   0.31851   0.00000  Uiso   1.00
C4821  C     0.79215   1.21165   0.23513   0.00000  Uiso   1.00
C4822  C     0.62942   1.18272   0.45097   0.00000  Uiso   1.00
C4823  C     0.85574   1.13973   0.27114   0.00000  Uiso   1.00
C4824  C     0.57449   1.13299   0.33530   0.00000  Uiso   1.00
C4825  C     0.82081   1.03843   0.38407   0.00000  Uiso   1.00
C4826  C     0.87716   0.98531   0.29177   0.00000  Uiso   1.00
C4827  C     0.57379   1.16344   0.33885   0.00000  Uiso   1.00
H4828  H     0.63816   1.17237   0.29522   0.00000  Uiso   1.00
C4829  C     0.76473   1.02725   0.44439   0.00000  Uiso   1.00
C4830  C     0.69910   1.15505   0.22671   0.00000  Uiso   1.00
C4831  C     0.83580   1.06249   0.38269   0.00000  Uiso   1.00
C4832  C     0.63152   0.99362   0.43744   0.00000  Uiso   1.00
C4833  C     0.80856   0.99525   0.36580   0.00000  Uiso   1.00
H4834  H     0.85396   1.05453   0.27517   0.00000  Uiso   1.00
C4835  C     0.86660   1.21056   0.22669   0.00000  Uiso   1.00
H4836  H     0.64858   1.17413   0.45550   0.00000  Uiso   1.00
O4837  O     0.84015   1.02601   0.34219   0.00000  Uiso   1.00
C4838  C     0.85839   1.16372   0.25685   0.00000  Uiso   1.00
O4839  O     0.83568   1.17982   0.25067   0.00000  Uiso   1.00
H4840  H     0.83453   1.13180   0.27426   0.00000  Uiso   1.00
C4841  C     0.60064   1.17789   0.34634   0.00000  Uiso   1.00
H4842  H     0.85305   1.09487   0.31564   0.00000  Uiso   1.00
C4843  C     0.77145   0.96762   0.38225   0.00000  Uiso   1.00
O4844  O     0.68014   1.18652   0.26810   0.00000  Uiso   1.00
H4845  H     0.87532   1.02815   0.30141   0.00000  Uiso   1.00
C4846  C     0.87495   1.08838   0.31053   0.00000  Uiso   1.00
C4847  C     0.84199   0.97551   0.45495   0.00000  Uiso   1.00
C4848  C     0.83379   0.97831   0.32719   0.00000  Uiso   1.00
N4849  N     0.77129   1.20355   0.24016   0.00000  Uiso   1.00
C4850  C     0.84028   1.20336   0.23441   0.00000  Uiso   1.00
C4851  C     0.69462   1.20002   0.24812   0.00000  Uiso   1.00
N4852  N     0.69477   1.13182   0.22733   0.00000  Uiso   1.00
C4853  C     0.66419   1.20420   0.28356   0.00000  Uiso   1.00
C4854  C     0.60430   1.20572   0.33257   0.00000  Uiso   1.00
C4855  C     0.87722   1.12135   0.27269   0.00000  Uiso   1.00
C4856  C     0.87719   1.09106   0.27957   0.00000  Uiso   1.00
H4857  H     0.54781   1.19368   0.35701   0.00000  Uiso   1.00
H4858  H     0.76325   1.04828   0.22384   0.00000  Uiso   1.00
O4859  O     0.57301   1.00103   0.46187   0.00000  Uiso   1.00
H4860  H     0.87419   1.06789   0.31668   0.00000  Uiso   1.00
H4861  H     0.57680   0.96479   0.27536   0.00000  Uiso   1.00
C4862  C     0.77913   1.07022   0.46351   0.00000  Uiso   1.00
H4863  H     0.76829   1.00226   0.21490   0.00000  Uiso   1.00
C4864  C     0.79948   1.17924   0.49311   0.00000  Uiso   1.00
C4865  C     0.61923   1.03213   0.54442   0.00000  Uiso   1.00
C4866  C     0.77172   1.14017   0.70599   0.00000  Uiso   1.00
C4867  C     0.80940   1.20875   0.49896   0.00000  Uiso   1.00
H4868  H     0.76993   1.10711   0.54404   0.00000  Uiso   1.00
H4869  H     0.77802   1.17760   0.50038   0.00000  Uiso   1.00
C4870  C     0.77519   1.08903   0.53127   0.00000  Uiso   1.00
C4871  C     0.66973   1.17644   0.50788   0.00000  Uiso   1.00
C4872  C     0.76732   1.02142   0.60972   0.00000  Uiso   1.00
C4873  C     0.71658   1.00315   0.53012   0.00000  Uiso   1.00
H4874  H     0.71425   1.04977   0.61604   0.00000  Uiso   1.00
C4875  C     0.62387   1.20893   0.56173   0.00000  Uiso   1.00
C4876  C     0.82124   1.05818   0.57518   0.00000  Uiso   1.00
H4877  H     0.60137   1.16248   0.63602   0.00000  Uiso   1.00
C4878  C     0.59536   0.96890   0.49343   0.00000  Uiso   1.00
H4879  H     0.71788   0.98363   0.56986   0.00000  Uiso   1.00
C4880  C     0.57796   0.97429   0.47108   0.00000  Uiso   1.00
C4881  C     0.76292   1.20032   0.66138   0.00000  Uiso   1.00
H4882  H     0.63330   1.16530   0.65188   0.00000  Uiso   1.00
H4883  H     0.77807   1.08264   0.59969   0.00000  Uiso   1.00
C4884  C     0.74490   1.17993   0.64752   0.00000  Uiso   1.00
C4885  C     0.75274   1.17044   0.61984   0.00000  Uiso   1.00
C4886  C     0.67446   0.99192   0.49690   0.00000  Uiso   1.00
C4887  C     0.55147   1.03356   0.58348   0.00000  Uiso   1.00
C4888  C     0.86697   1.17686   0.58749   0.00000  Uiso   1.00
C4889  C     0.85307   1.17816   0.53685   0.00000  Uiso   1.00
C4890  C     0.74635   1.02614   0.46636   0.00000  Uiso   1.00
C4891  C     0.71749   1.19166   0.64326   0.00000  Uiso   1.00
C4892  C     0.84696   1.02239   0.66188   0.00000  Uiso   1.00
C4893  C     0.60728   1.16117   0.48792   0.00000  Uiso   1.00
H4894  H     0.77556   1.12524   0.49232   0.00000  Uiso   1.00
C4895  C     0.72908   1.03152   0.53513   0.00000  Uiso   1.00
H4896  H     0.73763   1.03230   0.65834   0.00000  Uiso   1.00
C4897  C     0.65860   1.02955   0.46950   0.00000  Uiso   1.00
C4898  C     0.86876   1.03899   0.55708   0.00000  Uiso   1.00
H4899  H     0.86928   0.99943   0.51146   0.00000  Uiso   1.00
H4900  H     0.72972   1.08359   0.61739   0.00000  Uiso   1.00
C4901  C     0.60180   1.11905   0.67096   0.00000  Uiso   1.00
C4902  C     0.75651   1.04627   0.65432   0.00000  Uiso   1.00
H4903  H     0.85895   1.09995   0.59347   0.00000  Uiso   1.00
H4904  H     0.61092   1.10878   0.60504   0.00000  Uiso   1.00
C4905  C     0.85312   1.05533   0.57973   0.00000  Uiso   1.00
H4906  H     0.81125   1.19166   0.64309   0.00000  Uiso   1.00
H4907  H     0.61590   1.08218   0.63118   0.00000  Uiso   1.00
H4908  H     0.85791   1.15753   0.59425   0.00000  Uiso   1.00
H4909  H     0.85340   1.19357   0.59185   0.00000  Uiso   1.00
C4910  C     0.69429   1.00824   0.50919   0.00000  Uiso   1.00
C4911  C     0.56874   1.07440   0.61941   0.00000  Uiso   1.00
C4912  C     0.74416   1.15717   0.66751   0.00000  Uiso   1.00
H4913  H     0.70537   1.17638   0.63108   0.00000  Uiso   1.00
H4914  H     0.83401   1.16962   0.54577   0.00000  Uiso   1.00
C4915  C     0.56159   1.12304   0.61967   0.00000  Uiso   1.00
C4916  C     0.68137   1.04871   0.69498   0.00000  Uiso   1.00
C4917  C     0.60812   1.10240   0.62690   0.00000  Uiso   1.00
H4918  H     0.71912   1.21063   0.63116   0.00000  Uiso   1.00
C4919  C     0.55535   1.08066   0.59566   0.00000  Uiso   1.00
C4920  C     0.69688   1.03535   0.50010   0.00000  Uiso   1.00
O4921  O     0.60545   0.98970   0.51107   0.00000  Uiso   1.00
H4922  H     0.72515   1.18991   0.55394   0.00000  Uiso   1.00
H4923  H     0.75079   0.97617   0.53888   0.00000  Uiso   1.00
H4924  H     0.78982   1.07804   0.63323   0.00000  Uiso   1.00
C4925  C     0.56019   1.12541   0.56922   0.00000  Uiso   1.00
C4926  C     0.64269   1.19539   0.54641   0.00000  Uiso   1.00
C4927  C     0.58209   1.02083   0.48005   0.00000  Uiso   1.00
H4928  H     0.77119   1.07015   0.54437   0.00000  Uiso   1.00
C4929  C     0.85222   1.20648   0.66313   0.00000  Uiso   1.00
C4930  C     0.62192   1.15261   0.63749   0.00000  Uiso   1.00
H4931  H     0.55275   1.20288   0.52070   0.00000  Uiso   1.00
H4932  H     0.70477   1.19609   0.66088   0.00000  Uiso   1.00
C4933  C     0.73898   0.98294   0.52067   0.00000  Uiso   1.00
C4934  C     0.62568   1.20277   0.49675   0.00000  Uiso   1.00
C4935  C     0.68632   1.17509   0.53404   0.00000  Uiso   1.00
H4936  H     0.70163   1.14638   0.56285   0.00000  Uiso   1.00
H4937  H     0.65255   1.09167   0.65801   0.00000  Uiso   1.00
C4938  C     0.75987   1.04969   0.62271   0.00000  Uiso   1.00
H4939  H     0.66600   1.11727   0.63822   0.00000  Uiso   1.00
H4940  H     0.73512   1.06304   0.58743   0.00000  Uiso   1.00
C4941  C     0.79223   0.97522   0.58413   0.00000  Uiso   1.00
C4942  C     0.70601   1.04885   0.70925   0.00000  Uiso   1.00
C4943  C     0.82735   1.03788   0.64910   0.00000  Uiso   1.00
H4944  H     0.86508   1.17667   0.70978   0.00000  Uiso   1.00
H4945  H     0.63155   1.12893   0.54414   0.00000  Uiso   1.00
H4946  H     0.58186   1.12456   0.57097   0.00000  Uiso   1.00
C4947  C     0.78476   1.06725   0.61479   0.00000  Uiso   1.00
H4948  H     0.75467   0.99079   0.50648   0.00000  Uiso   1.00
C4949  C     0.80358   1.00067   0.58331   0.00000  Uiso   1.00
H4950  H     0.79624   1.09047   0.52436   0.00000  Uiso   1.00
H4951  H     0.77417   1.03715   0.66520   0.00000  Uiso   1.00
C4952  C     0.58284   1.06925   0.48963   0.00000  Uiso   1.00
H4953  H     0.82197   1.00106   0.57150   0.00000  Uiso   1.00
H4954  H     0.67275   1.13394   0.54437   0.00000  Uiso   1.00
H4955  H     0.70287   1.13714   0.52728   0.00000  Uiso   1.00
C4956  C     0.56486   1.02722   0.60761   0.00000  Uiso   1.00
H4957  H     0.75013   1.06673   0.66105   0.00000  Uiso   1.00
C4958  C     0.59058   1.14041   0.47886   0.00000  Uiso   1.00
C4959  C     0.72239   1.04842   0.50922   0.00000  Uiso   1.00
H4960  H     0.68956   0.97383   0.55002   0.00000  Uiso   1.00
C4961  C     0.55876   0.97930   0.59714   0.00000  Uiso   1.00
C4962  C     0.79177   1.02325   0.59558   0.00000  Uiso   1.00
C4963  C     0.65847   1.00023   0.47468   0.00000  Uiso   1.00
C4964  C     0.54828   1.11100   0.59387   0.00000  Uiso   1.00
C4965  C     0.86941   1.01475   0.64575   0.00000  Uiso   1.00
C4966  C     0.85010   1.16765   0.69443   0.00000  Uiso   1.00
C4967  C     0.65054   1.11431   0.65393   0.00000  Uiso   1.00
C4968  C     0.62184   1.12256   0.64623   0.00000  Uiso   1.00
C4969  C     0.75489   1.11809   0.49575   0.00000  Uiso   1.00
O4970  O     0.84266   1.01235   0.68839   0.00000  Uiso   1.00
O4971  O     0.60618   1.08528   0.52909   0.00000  Uiso   1.00
C4972  C     0.75472   1.11741   0.70815   0.00000  Uiso   1.00
H4973  H     0.70998   1.08707   0.49579   0.00000  Uiso   1.00
C4974  C     0.67738   1.20181   0.57966   0.00000  Uiso   1.00
H4975  H     0.74386   1.12067   0.47701   0.00000  Uiso   1.00
C4976  C     0.75517   0.99642   0.60919   0.00000  Uiso   1.00
C4977  C     0.70320   0.99163   0.55491   0.00000  Uiso   1.00
H4978  H     0.73150   0.96438   0.51114   0.00000  Uiso   1.00
C4979  C     0.73337   1.06160   0.61032   0.00000  Uiso   1.00
H4980  H     0.62937   1.15688   0.61808   0.00000  Uiso   1.00
H4981  H     0.75078   1.03079   0.53985   0.00000  Uiso   1.00
C4982  C     0.55453   1.10867   0.68192   0.00000  Uiso   1.00
H4983  H     0.81004   1.04422   0.66102   0.00000  Uiso   1.00
C4984  C     0.57601   1.10650   0.66387   0.00000  Uiso   1.00
H4985  H     0.67617   1.19433   0.49605   0.00000  Uiso   1.00
H4986  H     0.58455   1.03976   0.64418   0.00000  Uiso   1.00
C4987  C     0.80706   1.05029   0.60244   0.00000  Uiso   1.00
H4988  H     0.72063   1.04321   0.55383   0.00000  Uiso   1.00
H4989  H     0.81895   1.07960   0.56776   0.00000  Uiso   1.00
C4990  C     0.66933   1.19205   0.55489   0.00000  Uiso   1.00
C4991  C     0.74527   1.04619   0.48688   0.00000  Uiso   1.00
H4992  H     0.84982   1.19435   0.48694   0.00000  Uiso   1.00
H4993  H     0.65739   1.12429   0.67226   0.00000  Uiso   1.00
C4994  C     0.68991   1.14655   0.54236   0.00000  Uiso   1.00
H4995  H     0.71517   1.08927   0.53083   0.00000  Uiso   1.00
H4996  H     0.80035   1.17333   0.47098   0.00000  Uiso   1.00
C4997  C     0.75451   1.08925   0.50767   0.00000  Uiso   1.00
C4998  C     0.60506   1.12979   0.69682   0.00000  Uiso   1.00
C4999  C     0.67692   1.04590   0.48282   0.00000  Uiso   1.00
H5000  H     0.69753   1.19744   0.58857   0.00000  Uiso   1.00
C5001  C     0.60973   1.18876   0.47438   0.00000  Uiso   1.00
C5002  C     0.76090   1.06867   0.48535   0.00000  Uiso   1.00
C5003  C     0.59775   1.06431   0.51290   0.00000  Uiso   1.00
H5004  H     0.72969   1.17833   0.52045   0.00000  Uiso   1.00
C5005  C     0.84864   1.20715   0.52672   0.00000  Uiso   1.00
H5006  H     0.77222   1.16091   0.61528   0.00000  Uiso   1.00
H5007  H     0.57427   1.14114   0.61710   0.00000  Uiso   1.00
H5008  H     0.73180   1.00971   0.46840   0.00000  Uiso   1.00
C5009  C     0.72097   1.07247   0.70924   0.00000  Uiso   1.00
H5010  H     0.86218   1.15541   0.67923   0.00000  Uiso   1.00
C5011  C     0.83056   1.04487   0.62202   0.00000  Uiso   1.00
O5012  O     0.71209   1.09573   0.69397   0.00000  Uiso   1.00
C5013  C     0.86874   1.08195   0.58234   0.00000  Uiso   1.00
H5014  H     0.81301   1.16347   0.50281   0.00000  Uiso   1.00
C5015  C     0.83270   1.19182   0.68177   0.00000  Uiso   1.00
C5016  C     0.80969   1.18003   0.66296   0.00000  Uiso   1.00
C5017  C     0.72575   1.13564   0.67195   0.00000  Uiso   1.00
C5018  C     0.71464   1.18838   0.53425   0.00000  Uiso   1.00
C5019  C     0.58961   1.11571   0.49243   0.00000  Uiso   1.00
H5020  H     0.55509   1.11601   0.54990   0.00000  Uiso   1.00
C5021  C     0.63911   1.18171   0.51763   0.00000  Uiso   1.00
C5022  C     0.73106   1.11640   0.69274   0.00000  Uiso   1.00
O5023  O     0.56553   0.99940   0.61652   0.00000  Uiso   1.00
N5024  N     0.63078   1.02531   0.56382   0.00000  Uiso   1.00
C5025  C     0.60466   1.03805   0.52047   0.00000  Uiso   1.00
H5026  H     0.70753   1.13308   0.65998   0.00000  Uiso   1.00
H5027  H     0.68815   1.00719   0.56453   0.00000  Uiso   1.00
H5028  H     0.67261   0.97130   0.50597   0.00000  Uiso   1.00
H5029  H     0.67108   1.15864   0.49379   0.00000  Uiso   1.00
C5030  C     0.76578   1.15982   0.68643   0.00000  Uiso   1.00
C5031  C     0.61990   1.13248   0.52629   0.00000  Uiso   1.00
C5032  C     0.72381   1.08069   0.51214   0.00000  Uiso   1.00
H5033  H     0.81101   1.15850   0.65961   0.00000  Uiso   1.00
H5034  H     0.73567   0.99386   0.61876   0.00000  Uiso   1.00
N5035  N     0.82747   1.10186   0.69152   0.00000  Uiso   1.00
C5036  C     0.60529   1.11053   0.51686   0.00000  Uiso   1.00
C5037  C     0.59670   1.01601   0.50505   0.00000  Uiso   1.00
C5038  C     0.57374   1.04734   0.62559   0.00000  Uiso   1.00
C5039  C     0.62159   1.15798   0.51322   0.00000  Uiso   1.00
C5040  C     0.78289   1.18492   0.67877   0.00000  Uiso   1.00
C5041  C     0.57724   1.09949   0.63404   0.00000  Uiso   1.00
C5042  C     0.87457   1.02702   0.62020   0.00000  Uiso   1.00
H5043  H     0.62437   1.13925   0.70265   0.00000  Uiso   1.00
C5044  C     0.87680   1.17771   0.55720   0.00000  Uiso   1.00
N5045  N     0.66120   1.04754   0.68349   0.00000  Uiso   1.00
H5046  H     0.87622   1.09132   0.56280   0.00000  Uiso   1.00
H5047  H     0.71472   1.21042   0.52814   0.00000  Uiso   1.00
H5048  H     0.81612   1.04473   0.55758   0.00000  Uiso   1.00
C5049  C     0.85468   1.04180   0.60779   0.00000  Uiso   1.00
H5050  H     0.55415   1.14759   0.57072   0.00000  Uiso   1.00
H5051  H     0.75407   1.18935   0.60738   0.00000  Uiso   1.00
C5052  C     0.81874   1.20870   0.70323   0.00000  Uiso   1.00
H5053  H     0.73965   1.15466   0.61106   0.00000  Uiso   1.00
O5054  O     0.57492   1.09521   0.48021   0.00000  Uiso   1.00
H5055  H     0.85831   1.16467   0.51993   0.00000  Uiso   1.00
C5056  C     0.79011   1.20469   0.70292   0.00000  Uiso   1.00
C5057  C     0.57469   1.04776   0.47164   0.00000  Uiso   1.00
H5058  H     0.86278   1.03443   0.48229   0.00000  Uiso   1.00
C5059  C     0.54839   1.06077   0.57743   0.00000  Uiso   1.00
H5060  H     0.85870   1.01794   0.55578   0.00000  Uiso   1.00
H5061  H     0.74781   1.13273   0.51093   0.00000  Uiso   1.00
C5062  C     0.55821   1.12281   0.70707   0.00000  Uiso   1.00
C5063  C     0.76561   0.97247   0.59724   0.00000  Uiso   1.00
C5064  C     0.58257   1.20118   0.46413   0.00000  Uiso   1.00
H5065  H     0.82649   0.98242   0.47032   0.00000  Uiso   1.00
H5066  H     0.86599   1.04889   0.53680   0.00000  Uiso   1.00
C5067  C     0.84018   1.21030   0.49825   0.00000  Uiso   1.00
H5068  H     0.83495   1.15376   0.70485   0.00000  Uiso   1.00
H5069  H     0.67707   1.06636   0.47449   0.00000  Uiso   1.00
H5070  H     0.85855   1.19172   0.64848   0.00000  Uiso   1.00
H5071  H     0.56893   1.20912   0.48060   0.00000  Uiso   1.00
C5072  C     0.85840   0.98874   0.69435   0.00000  Uiso   1.00
H5073  H     0.60181   1.20893   0.55500   0.00000  Uiso   1.00
H5074  H     0.79150   1.08843   0.46443   0.00000  Uiso   1.00
C5075  C     0.88000   0.98030   0.67704   0.00000  Uiso   1.00
H5076  H     0.74939   1.21136   0.67421   0.00000  Uiso   1.00
C5077  C     0.77966   1.14893   0.89611   0.00000  Uiso   1.00
C5078  C     0.60603   1.04595   0.76237   0.00000  Uiso   1.00
C5079  C     0.59540   1.19156   0.76709   0.00000  Uiso   1.00
C5080  C     0.59808   1.15639   0.83342   0.00000  Uiso   1.00
C5081  C     0.74607   1.07388   0.72297   0.00000  Uiso   1.00
H5082  H     0.74543   1.03169   0.87880   0.00000  Uiso   1.00
H5083  H     0.61352   0.99805   0.93153   0.00000  Uiso   1.00
H5084  H     0.63966   1.00980   0.90714   0.00000  Uiso   1.00
H5085  H     0.77816   0.99938   0.80221   0.00000  Uiso   1.00
C5086  C     0.62152   1.04041   0.93436   0.00000  Uiso   1.00
H5087  H     0.72565   1.05914   0.92227   0.00000  Uiso   1.00
C5088  C     0.69556   1.06787   0.79952   0.00000  Uiso   1.00
O5089  O     0.69989   1.00246   0.72177   0.00000  Uiso   1.00
H5090  H     0.87317   1.20770   0.84285   0.00000  Uiso   1.00
N5091  N     0.62823   0.98040   0.75175   0.00000  Uiso   1.00
C5092  C     0.75468   1.06371   0.85211   0.00000  Uiso   1.00
O5093  O     0.57869   1.08572   0.78122   0.00000  Uiso   1.00
C5094  C     0.73021   1.00288   0.94703   0.00000  Uiso   1.00
N5095  N     0.79706   1.05427   0.76767   0.00000  Uiso   1.00
C5096  C     0.67491   0.99559   0.94185   0.00000  Uiso   1.00
H5097  H     0.56034   1.12660   0.90589   0.00000  Uiso   1.00
C5098  C     0.55700   1.06920   0.77581   0.00000  Uiso   1.00
C5099  C     0.75521   1.05017   0.73678   0.00000  Uiso   1.00
C5100  C     0.79509   1.19432   0.92338   0.00000  Uiso   1.00
C5101  C     0.63486   1.06231   0.91840   0.00000  Uiso   1.00
C5102  C     0.74155   1.17756   0.81231   0.00000  Uiso   1.00
N5103  N     0.63171   1.13426   0.79825   0.00000  Uiso   1.00
H5104  H     0.75288   1.05867   0.94271   0.00000  Uiso   1.00
C5105  C     0.63967   1.04238   0.96030   0.00000  Uiso   1.00
H5106  H     0.72629   1.07613   0.88288   0.00000  Uiso   1.00
C5107  C     0.56256   1.17085   0.90044   0.00000  Uiso   1.00
C5108  C     0.61822   1.01471   0.91664   0.00000  Uiso   1.00
C5109  C     0.76086   0.96727   0.84644   0.00000  Uiso   1.00
C5110  C     0.63343   1.19076   0.84709   0.00000  Uiso   1.00
C5111  C     0.86686   1.06040   0.81814   0.00000  Uiso   1.00
C5112  C     0.67098   1.17530   0.87669   0.00000  Uiso   1.00
H5113  H     0.71705   1.00212   0.79386   0.00000  Uiso   1.00
C5114  C     0.69302   1.18100   0.89393   0.00000  Uiso   1.00
C5115  C     0.78353   1.15959   0.83213   0.00000  Uiso   1.00
C5116  C     0.66240   1.14832   0.87359   0.00000  Uiso   1.00
C5117  C     0.62333   1.16335   0.84653   0.00000  Uiso   1.00
H5118  H     0.60604   1.07389   0.88614   0.00000  Uiso   1.00
H5119  H     0.75066   1.00749   0.94711   0.00000  Uiso   1.00
C5120  C     0.66535   1.10604   0.89602   0.00000  Uiso   1.00
C5121  C     0.83004   1.10027   0.76437   0.00000  Uiso   1.00
O5122  O     0.83351   1.10714   0.81400   0.00000  Uiso   1.00
H5123  H     0.69781   1.09443   0.92187   0.00000  Uiso   1.00
C5124  C     0.77382   1.14473   0.78659   0.00000  Uiso   1.00
C5125  C     0.85660   1.06965   0.79254   0.00000  Uiso   1.00
C5126  C     0.56586   1.15625   0.74997   0.00000  Uiso   1.00
C5127  C     0.84011   1.09321   0.79040   0.00000  Uiso   1.00
C5128  C     0.62981   1.11195   0.79090   0.00000  Uiso   1.00
H5129  H     0.74057   1.19465   0.77396   0.00000  Uiso   1.00
C5130  C     0.78736   1.20707   0.84796   0.00000  Uiso   1.00
C5131  C     0.73250   1.06649   0.94251   0.00000  Uiso   1.00
C5132  C     0.77918   1.17320   0.88260   0.00000  Uiso   1.00
C5133  C     0.81245   1.12653   0.81175   0.00000  Uiso   1.00
C5134  C     0.74481   1.08283   0.87426   0.00000  Uiso   1.00
H5135  H     0.82359   0.98626   0.87013   0.00000  Uiso   1.00
C5136  C     0.65644   1.19537   0.86391   0.00000  Uiso   1.00
C5137  C     0.80755   1.11949   0.95749   0.00000  Uiso   1.00
H5138  H     0.73021   1.08845   0.94535   0.00000  Uiso   1.00
C5139  C     0.78982   1.14567   0.92239   0.00000  Uiso   1.00
H5140  H     0.70259   1.00229   0.85342   0.00000  Uiso   1.00
C5141  C     0.83427   1.09664   0.71396   0.00000  Uiso   1.00
C5142  C     0.76053   1.03572   0.86209   0.00000  Uiso   1.00
C5143  C     0.80551   1.14254   0.83433   0.00000  Uiso   1.00
C5144  C     0.74123   1.02549   0.73562   0.00000  Uiso   1.00
H5145  H     0.81713   1.13701   0.85431   0.00000  Uiso   1.00
H5146  H     0.84969   1.18658   0.86034   0.00000  Uiso   1.00
C5147  C     0.79841   1.12954   0.78658   0.00000  Uiso   1.00
C5148  C     0.80280   0.97786   0.86841   0.00000  Uiso   1.00
C5149  C     0.55850   1.04648   0.75856   0.00000  Uiso   1.00
H5150  H     0.59100   1.07216   0.95154   0.00000  Uiso   1.00
N5151  N     0.57706   1.15119   0.82248   0.00000  Uiso   1.00
H5152  H     0.58889   1.15785   0.93397   0.00000  Uiso   1.00
N5153  N     0.87526   1.05277   0.83875   0.00000  Uiso   1.00
C5154  C     0.79654   1.16997   0.93749   0.00000  Uiso   1.00
H5155  H     0.80776   1.20391   0.83868   0.00000  Uiso   1.00
H5156  H     0.87265   1.17196   0.83761   0.00000  Uiso   1.00
H5157  H     0.71025   1.09734   0.82754   0.00000  Uiso   1.00
C5158  C     0.63673   1.14242   0.86172   0.00000  Uiso   1.00
C5159  C     0.56909   1.17908   0.76746   0.00000  Uiso   1.00
H5160  H     0.80023   1.21239   0.93515   0.00000  Uiso   1.00
O5161  O     0.67925   1.12783   0.88533   0.00000  Uiso   1.00
C5162  C     0.71521   0.98421   0.85261   0.00000  Uiso   1.00
H5163  H     0.76155   1.14692   0.76757   0.00000  Uiso   1.00
H5164  H     0.60237   1.01412   0.90050   0.00000  Uiso   1.00
O5165  O     0.62464   1.11733   0.86868   0.00000  Uiso   1.00
O5166  O     0.79127   1.11941   0.93323   0.00000  Uiso   1.00
H5167  H     0.82318   0.97018   0.81158   0.00000  Uiso   1.00
N5168  N     0.81241   0.98236   0.75019   0.00000  Uiso   1.00
C5169  C     0.71474   1.07727   0.81825   0.00000  Uiso   1.00
H5170  H     0.75735   1.08409   0.89154   0.00000  Uiso   1.00
C5171  C     0.62841   1.08317   0.78417   0.00000  Uiso   1.00
C5172  C     0.72080   0.97917   0.93672   0.00000  Uiso   1.00
C5173  C     0.73292   1.05850   0.83055   0.00000  Uiso   1.00
C5174  C     0.60370   1.07131   0.77565   0.00000  Uiso   1.00
C5175  C     0.62454   1.07806   0.89676   0.00000  Uiso   1.00
O5176  O     0.62022   1.21118   0.83214   0.00000  Uiso   1.00
C5177  C     0.67578   1.08833   0.91578   0.00000  Uiso   1.00
H5178  H     0.79835   1.01848   0.82454   0.00000  Uiso   1.00
H5179  H     0.71543   1.14003   0.81188   0.00000  Uiso   1.00
C5180  C     0.63894   1.10023   0.88636   0.00000  Uiso   1.00
H5181  H     0.74180   1.10400   0.86864   0.00000  Uiso   1.00
C5182  C     0.66200   1.06643   0.92674   0.00000  Uiso   1.00
C5183  C     0.56547   1.19153   0.87594   0.00000  Uiso   1.00
C5184  C     0.65274   1.06911   0.78272   0.00000  Uiso   1.00
H5185  H     0.70765   1.16169   0.78496   0.00000  Uiso   1.00
N5186  N     0.81047   1.05004   0.93620   0.00000  Uiso   1.00
C5187  C     0.77320   1.17979   0.85185   0.00000  Uiso   1.00
C5188  C     0.66990   1.04895   0.95149   0.00000  Uiso   1.00
H5189  H     0.59272   1.19057   0.92287   0.00000  Uiso   1.00
C5190  C     0.74228   0.98906   0.84655   0.00000  Uiso   1.00
C5191  C     0.86097   1.06876   0.74330   0.00000  Uiso   1.00
C5192  C     0.65365   1.04271   0.77300   0.00000  Uiso   1.00
C5193  C     0.71615   1.16036   0.80604   0.00000  Uiso   1.00
H5194  H     0.79647   1.07858   0.84710   0.00000  Uiso   1.00
H5195  H     0.77302   1.13066   0.88300   0.00000  Uiso   1.00
H5196  H     0.58452   1.03553   0.95424   0.00000  Uiso   1.00
C5197  C     0.71800   1.02342   0.80014   0.00000  Uiso   1.00
O5198  O     0.58352   1.03420   0.75093   0.00000  Uiso   1.00
C5199  C     0.69735   1.04045   0.78936   0.00000  Uiso   1.00
C5200  C     0.77820   1.05217   0.75403   0.00000  Uiso   1.00
C5201  C     0.55144   1.14322   0.89253   0.00000  Uiso   1.00
H5202  H     0.69900   1.17139   0.81488   0.00000  Uiso   1.00
H5203  H     0.57892   1.05111   0.92273   0.00000  Uiso   1.00
H5204  H     0.76920   1.09660   0.83117   0.00000  Uiso   1.00
C5205  C     0.77757   1.07741   0.83606   0.00000  Uiso   1.00
C5206  C     0.78127   1.00451   0.82437   0.00000  Uiso   1.00
C5207  C     0.58944   1.16932   0.91522   0.00000  Uiso   1.00
C5208  C     0.71169   1.02398   0.95297   0.00000  Uiso   1.00
C5209  C     0.81433   1.06980   0.94893   0.00000  Uiso   1.00
C5210  C     0.84143   1.08945   0.74110   0.00000  Uiso   1.00
O5211  O     0.76041   1.09705   0.72667   0.00000  Uiso   1.00
H5212  H     0.78126   1.03194   0.86880   0.00000  Uiso   1.00
O5213  O     0.67822   1.02663   0.77483   0.00000  Uiso   1.00
O5214  O     0.67549   1.08411   0.79011   0.00000  Uiso   1.00
H5215  H     0.78144   1.06559   0.81698   0.00000  Uiso   1.00
C5216  C     0.73474   1.03169   0.82109   0.00000  Uiso   1.00
C5217  C     0.75444   1.01597   0.83829   0.00000  Uiso   1.00
O5218  O     0.80862   1.11902   0.76185   0.00000  Uiso   1.00
H5219  H     0.86506   1.15504   0.76438   0.00000  Uiso   1.00
O5220  O     0.80794   1.17035   0.96302   0.00000  Uiso   1.00
C5221  C     0.62873   1.00369   0.75648   0.00000  Uiso   1.00
H5222  H     0.78597   1.14538   0.72189   0.00000  Uiso   1.00
C5223  C     0.85283   0.97247   0.71645   0.00000  Uiso   1.00
C5224  C     0.73740   0.98023   0.74749   0.00000  Uiso   1.00
H5225  H     0.58491   1.19224   0.86455   0.00000  Uiso   1.00
C5226  C     0.76620   1.15997   0.80852   0.00000  Uiso   1.00
H5227  H     0.73245   1.16493   0.85587   0.00000  Uiso   1.00
C5228  C     0.74091   1.20268   0.79491   0.00000  Uiso   1.00
C5229  C     0.78852   1.19660   0.89637   0.00000  Uiso   1.00
C5230  C     0.69242   0.97326   0.93944   0.00000  Uiso   1.00
C5231  C     0.74341   1.18118   0.84381   0.00000  Uiso   1.00
H5232  H     0.65263   0.98875   0.94081   0.00000  Uiso   1.00
H5233  H     0.73623   1.20198   0.85163   0.00000  Uiso   1.00
H5234  H     0.60860   1.16514   0.90312   0.00000  Uiso   1.00
O5235  O     0.75404   1.00303   0.74682   0.00000  Uiso   1.00
C5236  C     0.62981   1.03169   0.76324   0.00000  Uiso   1.00
H5237  H     0.87792   1.16147   0.91195   0.00000  Uiso   1.00
N5238  N     0.55921   0.99826   0.95835   0.00000  Uiso   1.00
C5239  C     0.59378   1.05193   0.94155   0.00000  Uiso   1.00
C5240  C     0.86632   1.05662   0.76861   0.00000  Uiso   1.00
H5241  H     0.79096   0.98939   0.88323   0.00000  Uiso   1.00
H5242  H     0.87559   1.11803   0.76153   0.00000  Uiso   1.00
C5243  C     0.68438   1.02188   0.94695   0.00000  Uiso   1.00
C5244  C     0.83009   0.97781   0.73476   0.00000  Uiso   1.00
N5245  N     0.71148   1.18498   0.90831   0.00000  Uiso   1.00
H5246  H     0.55698   1.13746   0.87225   0.00000  Uiso   1.00
C5247  C     0.71523   1.02575   0.72352   0.00000  Uiso   1.00
O5248  O     0.87501   1.06140   0.71977   0.00000  Uiso   1.00
O5249  O     0.58985   1.14629   0.73895   0.00000  Uiso   1.00
N5250  N     0.61653   1.20179   0.76771   0.00000  Uiso   1.00
C5251  C     0.87180   1.18746   0.85321   0.00000  Uiso   1.00
C5252  C     0.71107   0.98031   0.73610   0.00000  Uiso   1.00
C5253  C     0.78937   0.97771   0.83944   0.00000  Uiso   1.00
C5254  C     0.58425   1.13169   0.71521   0.00000  Uiso   1.00
N5255  N     0.60946   0.96853   0.87059   0.00000  Uiso   1.00
H5256  H     0.56647   1.21104   0.88531   0.00000  Uiso   1.00
H5257  H     0.82231   0.98037   0.96197   0.00000  Uiso   1.00
C5258  C     0.63024   1.03232   1.11913   0.00000  Uiso   1.00
H5259  H     0.64203   1.01893   1.13214   0.00000  Uiso   1.00
C5260  C     0.63702   1.03896   1.09211   0.00000  Uiso   1.00
O5261  O     0.59346   1.03447   1.15520   0.00000  Uiso   1.00
H5262  H     0.65377   1.10045   1.06035   0.00000  Uiso   1.00
H5263  H     0.82926   1.04644   1.19119   0.00000  Uiso   1.00
C5264  C     0.60336   1.04086   1.12900   0.00000  Uiso   1.00
C5265  C     0.59551   1.06414   1.08671   0.00000  Uiso   1.00
C5266  C     0.58665   1.05437   1.11040   0.00000  Uiso   1.00
H5267  H     0.78105   1.16456   1.02132   0.00000  Uiso   1.00
C5268  C     0.79044   0.96637   0.98591   0.00000  Uiso   1.00
C5269  C     0.75518   1.00871   1.06391   0.00000  Uiso   1.00
C5270  C     0.75176   0.96778   1.02471   0.00000  Uiso   1.00
C5271  C     0.72745   1.12656   1.04569   0.00000  Uiso   1.00
C5272  C     0.83874   0.97002   1.13011   0.00000  Uiso   1.00
C5273  C     0.80629   1.10473   1.08285   0.00000  Uiso   1.00
H5274  H     0.74179   1.04040   1.19697   0.00000  Uiso   1.00
C5275  C     0.85174   1.03402   1.07785   0.00000  Uiso   1.00
C5276  C     0.63080   1.06197   1.04807   0.00000  Uiso   1.00
H5277  H     0.62410   0.97044   1.15115   0.00000  Uiso   1.00
C5278  C     0.73346   1.19105   1.15888   0.00000  Uiso   1.00
C5279  C     0.79434   0.98464   1.18068   0.00000  Uiso   1.00
H5280  H     0.60606   1.11956   1.07497   0.00000  Uiso   1.00
C5281  C     0.76779   1.01193   1.03840   0.00000  Uiso   1.00
H5282  H     0.70449   1.04963   1.06845   0.00000  Uiso   1.00
H5283  H     0.66951   1.04020   1.03253   0.00000  Uiso   1.00
H5284  H     0.64173   1.02042   1.03919   0.00000  Uiso   1.00
H5285  H     0.69513   1.04832   1.10234   0.00000  Uiso   1.00
C5286  C     0.67277   1.00380   1.07873   0.00000  Uiso   1.00
C5287  C     0.83627   1.16450   1.01351   0.00000  Uiso   1.00
H5288  H     0.68969   0.99665   1.06608   0.00000  Uiso   1.00
C5289  C     0.86117   1.10080   1.16733   0.00000  Uiso   1.00
H5290  H     0.76143   1.07154   1.19336   0.00000  Uiso   1.00
H5291  H     0.87345   0.96389   0.97561   0.00000  Uiso   1.00
C5292  C     0.56597   1.02913   1.15545   0.00000  Uiso   1.00
C5293  C     0.61732   1.10872   1.03166   0.00000  Uiso   1.00
C5294  C     0.74286   0.98437   1.07132   0.00000  Uiso   1.00
H5295  H     0.80851   1.06897   1.17082   0.00000  Uiso   1.00
O5296  O     0.72182   1.17661   1.18129   0.00000  Uiso   1.00
C5297  C     0.75928   1.15761   1.01945   0.00000  Uiso   1.00
H5298  H     0.77607   1.20902   1.04988   0.00000  Uiso   1.00
C5299  C     0.87030   0.96645   1.17191   0.00000  Uiso   1.00
H5300  H     0.61101   1.13628   0.99597   0.00000  Uiso   1.00
H5301  H     0.68567   1.08598   0.96708   0.00000  Uiso   1.00
C5302  C     0.73350   1.05304   0.99092   0.00000  Uiso   1.00
H5303  H     0.79932   1.20466   1.07817   0.00000  Uiso   1.00
C5304  C     0.87608   1.06069   1.14273   0.00000  Uiso   1.00
C5305  C     0.55329   1.06510   1.00551   0.00000  Uiso   1.00
C5306  C     0.80785   1.05385   1.18804   0.00000  Uiso   1.00
C5307  C     0.56987   1.08837   1.01137   0.00000  Uiso   1.00
C5308  C     0.73993   1.17100   1.06587   0.00000  Uiso   1.00
C5309  C     0.68699   1.05356   1.08126   0.00000  Uiso   1.00
C5310  C     0.58919   1.03806   1.02505   0.00000  Uiso   1.00
H5311  H     0.70949   1.13821   1.03938   0.00000  Uiso   1.00
C5312  C     0.65198   1.03878   1.04601   0.00000  Uiso   1.00
C5313  C     0.81021   1.12153   1.10521   0.00000  Uiso   1.00
C5314  C     0.76148   1.04904   1.20088   0.00000  Uiso   1.00
C5315  C     0.77956   1.15384   1.08551   0.00000  Uiso   1.00
H5316  H     0.72092   1.04336   1.00669   0.00000  Uiso   1.00
C5317  C     0.62111   1.05772   1.07779   0.00000  Uiso   1.00
C5318  C     0.62581   1.12533   1.00713   0.00000  Uiso   1.00
C5319  C     0.76217   1.18039   1.08417   0.00000  Uiso   1.00
H5320  H     0.59799   1.01810   1.03132   0.00000  Uiso   1.00
H5321  H     0.74931   1.17634   1.01255   0.00000  Uiso   1.00
C5322  C     0.77747   0.99575   1.15665   0.00000  Uiso   1.00
O5323  O     0.75829   1.03073   1.08249   0.00000  Uiso   1.00
O5324  O     0.86002   1.11659   1.02588   0.00000  Uiso   1.00
H5325  H     0.79964   1.15834   1.12487   0.00000  Uiso   1.00
C5326  C     0.75016   1.14795   1.04822   0.00000  Uiso   1.00
C5327  C     0.74135   1.17631   1.13559   0.00000  Uiso   1.00
N5328  N     0.86192   1.11426   1.18650   0.00000  Uiso   1.00
H5329  H     0.65665   1.09068   1.02628   0.00000  Uiso   1.00
C5330  C     0.82476   0.99084   1.17504   0.00000  Uiso   1.00
C5331  C     0.71459   1.19481   1.20257   0.00000  Uiso   1.00
H5332  H     0.82856   1.01119   1.16484   0.00000  Uiso   1.00
N5333  N     0.85071   1.01850   1.06030   0.00000  Uiso   1.00
C5334  C     0.77600   1.20580   1.07306   0.00000  Uiso   1.00
C5335  C     0.87782   1.07384   1.00552   0.00000  Uiso   1.00
O5336  O     0.78313   0.99238   0.99410   0.00000  Uiso   1.00
H5337  H     0.72548   1.18361   1.05411   0.00000  Uiso   1.00
H5338  H     0.83473   0.99384   1.19498   0.00000  Uiso   1.00
C5339  C     0.78449   1.03352   1.18656   0.00000  Uiso   1.00
C5340  C     0.56684   0.97223   1.07348   0.00000  Uiso   1.00
H5341  H     0.72574   1.16079   1.08133   0.00000  Uiso   1.00
C5342  C     0.64101   1.09127   1.04286   0.00000  Uiso   1.00
C5343  C     0.83814   1.07449   1.10098   0.00000  Uiso   1.00
C5344  C     0.77250   1.03618   1.13036   0.00000  Uiso   1.00
C5345  C     0.66335   1.03405   1.07451   0.00000  Uiso   1.00
C5346  C     0.78748   1.00612   1.20290   0.00000  Uiso   1.00
H5347  H     0.77328   1.05742   1.12732   0.00000  Uiso   1.00
C5348  C     0.74999   0.99356   1.11575   0.00000  Uiso   1.00
H5349  H     0.58204   1.07916   1.07563   0.00000  Uiso   1.00
C5350  C     0.76081   1.01976   1.10915   0.00000  Uiso   1.00
H5351  H     0.65755   0.98825   1.07536   0.00000  Uiso   1.00
O5352  O     0.56027   1.06141   1.11788   0.00000  Uiso   1.00
C5353  C     0.84106   1.09050   1.12379   0.00000  Uiso   1.00
H5354  H     0.65741   0.98315   1.18983   0.00000  Uiso   1.00
C5355  C     0.77850   1.02338   1.15519   0.00000  Uiso   1.00
H5356  H     0.74442   1.15385   1.13781   0.00000  Uiso   1.00
C5357  C     0.84314   1.11776   1.00216   0.00000  Uiso   1.00
H5358  H     0.58347   0.98273   1.08425   0.00000  Uiso   1.00
O5359  O     0.82547   1.11482   1.12812   0.00000  Uiso   1.00
H5360  H     0.78299   1.09779   1.04542   0.00000  Uiso   1.00
N5361  N     0.84182   1.18254   1.02732   0.00000  Uiso   1.00
C5362  C     0.75114   1.19071   1.11289   0.00000  Uiso   1.00
C5363  C     0.85986   1.08408   1.14483   0.00000  Uiso   1.00
H5364  H     0.68540   1.05942   0.99129   0.00000  Uiso   1.00
C5365  C     0.81344   1.14403   0.97178   0.00000  Uiso   1.00
C5366  C     0.78725   1.11300   1.06263   0.00000  Uiso   1.00
C5367  C     0.60428   1.06093   1.03059   0.00000  Uiso   1.00
C5368  C     0.85473   1.05138   1.09931   0.00000  Uiso   1.00
C5369  C     0.59584   1.08665   1.02358   0.00000  Uiso   1.00
H5370  H     0.68586   0.97731   1.16778   0.00000  Uiso   1.00
C5371  C     0.79748   1.14633   1.10570   0.00000  Uiso   1.00
H5372  H     0.72510   1.11707   1.06553   0.00000  Uiso   1.00
H5373  H     0.73287   1.11187   1.02921   0.00000  Uiso   1.00
O5374  O     0.85494   1.07030   0.98953   0.00000  Uiso   1.00
H5375  H     0.68285   1.07614   1.07928   0.00000  Uiso   1.00
C5376  C     0.77372   1.13664   1.06438   0.00000  Uiso   1.00
C5377  C     0.82983   1.14167   0.99534   0.00000  Uiso   1.00
C5378  C     0.60623   1.12804   1.05348   0.00000  Uiso   1.00
C5379  C     0.55392   1.01401   1.17531   0.00000  Uiso   1.00
C5380  C     0.57110   1.00509   1.19624   0.00000  Uiso   1.00
C5381  C     0.78277   1.03630   1.03076   0.00000  Uiso   1.00
H5382  H     0.67985   1.00317   1.09945   0.00000  Uiso   1.00
H5383  H     0.56117   1.10763   1.00580   0.00000  Uiso   1.00
O5384  O     0.81750   1.07897   1.08120   0.00000  Uiso   1.00
N5385  N     0.79423   1.05634   1.02412   0.00000  Uiso   1.00
C5386  C     0.83967   1.09366   0.98538   0.00000  Uiso   1.00
H5387  H     0.61925   1.14518   1.05429   0.00000  Uiso   1.00
H5388  H     0.75988   1.14135   1.00308   0.00000  Uiso   1.00
H5389  H     0.63655   1.11297   0.99099   0.00000  Uiso   1.00
C5390  C     0.76866   0.99059   1.01989   0.00000  Uiso   1.00
C5391  C     0.56330   1.04013   1.01467   0.00000  Uiso   1.00
H5392  H     0.85293   0.98479   1.12062   0.00000  Uiso   1.00
C5393  C     0.84126   0.96878   1.16038   0.00000  Uiso   1.00
H5394  H     0.58664   1.13765   1.05215   0.00000  Uiso   1.00
C5395  C     0.67068   0.96778   1.18120   0.00000  Uiso   1.00
C5396  C     0.76141   0.98187   1.13809   0.00000  Uiso   1.00
H5397  H     0.64281   1.13966   1.01411   0.00000  Uiso   1.00
O5398  O     0.73373   0.97884   1.09775   0.00000  Uiso   1.00
H5399  H     0.75249   1.04189   0.98852   0.00000  Uiso   1.00
C5400  C     0.87949   1.09563   1.02416   0.00000  Uiso   1.00
H5401  H     0.65049   0.96596   1.12576   0.00000  Uiso   1.00
H5402  H     0.73541   1.07282   0.99913   0.00000  Uiso   1.00
C5403  C     0.74008   0.96500   1.05078   0.00000  Uiso   1.00
C5404  C     0.68922   1.06415   0.96996   0.00000  Uiso   1.00
H5405  H     0.55944   1.17667   1.02789   0.00000  Uiso   1.00
H5406  H     0.63672   1.02210   0.97123   0.00000  Uiso   1.00
H5407  H     0.80612   1.06523   1.20906   0.00000  Uiso   1.00
H5408  H     0.63049   1.05585   0.97544   0.00000  Uiso   1.00
H5409  H     0.54836   0.98542   1.07581   0.00000  Uiso   1.00
C5410  C     0.55017   1.04249   1.13513   0.00000  Uiso   1.00
C5411  C     0.87271   1.04447   1.11977   0.00000  Uiso   1.00
H5412  H     0.81760   0.97476   1.12199   0.00000  Uiso   1.00
H5413  H     0.57245   0.97361   1.05095   0.00000  Uiso   1.00
C5414  C     0.81988   1.09354   0.96384   0.00000  Uiso   1.00
C5415  C     0.71679   1.05301   0.96443   0.00000  Uiso   1.00
O5416  O     0.54812   1.01593   1.01439   0.00000  Uiso   1.00
C5417  C     1.01305   0.32746   0.31914   0.00000  Uiso   1.00
C5418  C     1.13283   0.36390   0.26274   0.00000  Uiso   1.00
H5419  H     1.11591   0.39009   0.45670   0.00000  Uiso   1.00
C5420  C     1.19762   0.23713   0.42477   0.00000  Uiso   1.00
N5421  N     1.16091   0.28081   0.34409   0.00000  Uiso   1.00
C5422  C     1.00263   0.31535   0.29618   0.00000  Uiso   1.00
C5423  C     1.15265   0.27563   0.36526   0.00000  Uiso   1.00
C5424  C     0.93654   0.41281   0.31117   0.00000  Uiso   1.00
C5425  C     0.88842   0.36023   0.24388   0.00000  Uiso   1.00
H5426  H     1.00527   0.21973   0.24810   0.00000  Uiso   1.00
H5427  H     1.05816   0.43291   0.44037   0.00000  Uiso   1.00
C5428  C     1.00554   0.32749   0.27137   0.00000  Uiso   1.00
H5429  H     0.96739   0.42666   0.33974   0.00000  Uiso   1.00
H5430  H     1.01051   0.26884   0.33184   0.00000  Uiso   1.00
C5431  C     0.99033   0.31732   0.39085   0.00000  Uiso   1.00
H5432  H     0.99846   0.35983   0.39880   0.00000  Uiso   1.00
C5433  C     1.15570   0.25529   0.41116   0.00000  Uiso   1.00
H5434  H     1.18122   0.38747   0.25474   0.00000  Uiso   1.00
O5435  O     0.91673   0.36011   0.39789   0.00000  Uiso   1.00
H5436  H     0.96594   0.31997   0.35367   0.00000  Uiso   1.00
C5437  C     1.07506   0.22555   0.28224   0.00000  Uiso   1.00
C5438  C     0.90073   0.34402   0.35292   0.00000  Uiso   1.00
H5439  H     1.05156   0.25937   0.22917   0.00000  Uiso   1.00
H5440  H     1.11850   0.26230   0.26470   0.00000  Uiso   1.00
C5441  C     1.09940   0.26309   0.25249   0.00000  Uiso   1.00
H5442  H     1.13554   0.34036   0.44839   0.00000  Uiso   1.00
C5443  C     1.01915   0.30626   0.38973   0.00000  Uiso   1.00
C5444  C     1.08397   0.41664   0.22828   0.00000  Uiso   1.00
C5445  C     1.17389   0.37830   0.23532   0.00000  Uiso   1.00
N5446  N     0.91205   0.42209   0.21756   0.00000  Uiso   1.00
N5447  N     0.88505   0.42252   0.37597   0.00000  Uiso   1.00
C5448  C     0.90014   0.34114   0.40959   0.00000  Uiso   1.00
H5449  H     0.88997   0.33312   0.31175   0.00000  Uiso   1.00
O5450  O     1.04739   0.38664   0.28742   0.00000  Uiso   1.00
C5451  C     0.97185   0.29464   0.39970   0.00000  Uiso   1.00
H5452  H     0.97899   0.27326   0.34389   0.00000  Uiso   1.00
H5453  H     0.93955   0.28464   0.30659   0.00000  Uiso   1.00
C5454  C     1.09203   0.41889   0.27871   0.00000  Uiso   1.00
C5455  C     1.02882   0.35164   0.31715   0.00000  Uiso   1.00
H5456  H     0.95438   0.35312   0.26105   0.00000  Uiso   1.00
C5457  C     1.18514   0.22404   0.44864   0.00000  Uiso   1.00
C5458  C     1.04004   0.38236   0.23804   0.00000  Uiso   1.00
C5459  C     1.16562   0.32820   0.24890   0.00000  Uiso   1.00
C5460  C     1.08943   0.22077   0.30533   0.00000  Uiso   1.00
C5461  C     0.93520   0.40131   0.28310   0.00000  Uiso   1.00
C5462  C     1.17486   0.31901   0.27507   0.00000  Uiso   1.00
H5463  H     0.93934   0.40131   0.36856   0.00000  Uiso   1.00
C5464  C     1.07629   0.41042   0.25552   0.00000  Uiso   1.00
H5465  H     1.00783   0.25476   0.28744   0.00000  Uiso   1.00
H5466  H     0.94901   0.32227   0.30999   0.00000  Uiso   1.00
H5467  H     1.10224   0.24995   0.23518   0.00000  Uiso   1.00
C5468  C     0.99458   0.28410   0.33245   0.00000  Uiso   1.00
C5469  C     0.88345   0.39864   0.27516   0.00000  Uiso   1.00
C5470  C     1.11719   0.25422   0.44002   0.00000  Uiso   1.00
H5471  H     0.98310   0.40424   0.31676   0.00000  Uiso   1.00
H5472  H     1.17375   0.33406   0.29246   0.00000  Uiso   1.00
H5473  H     0.95108   0.30268   0.39775   0.00000  Uiso   1.00
C5474  C     0.88833   0.34561   0.22109   0.00000  Uiso   1.00
O5475  O     1.07705   0.27910   0.42819   0.00000  Uiso   1.00
C5476  C     1.18252   0.27407   0.25672   0.00000  Uiso   1.00
C5477  C     0.96621   0.41846   0.31886   0.00000  Uiso   1.00
C5478  C     1.06172   0.27293   0.28895   0.00000  Uiso   1.00
C5479  C     1.04928   0.24722   0.24760   0.00000  Uiso   1.00
C5480  C     0.93641   0.33483   0.22438   0.00000  Uiso   1.00
O5481  O     1.10982   0.43156   0.22713   0.00000  Uiso   1.00
C5482  C     0.92076   0.43958   0.31360   0.00000  Uiso   1.00
H5483  H     0.97432   0.29030   0.42079   0.00000  Uiso   1.00
C5484  C     1.03473   0.29724   0.41041   0.00000  Uiso   1.00
H5485  H     1.09751   0.23867   0.31786   0.00000  Uiso   1.00
C5486  C     1.11512   0.27687   0.39518   0.00000  Uiso   1.00
C5487  C     1.18282   0.29162   0.27939   0.00000  Uiso   1.00
O5488  O     1.19409   0.28450   0.30353   0.00000  Uiso   1.00
H5489  H     0.97192   0.25204   0.28653   0.00000  Uiso   1.00
C5490  C     1.14419   0.24815   0.43657   0.00000  Uiso   1.00
C5491  C     1.05438   0.39350   0.26019   0.00000  Uiso   1.00
C5492  C     0.92590   0.38523   0.35704   0.00000  Uiso   1.00
H5493  H     0.93149   0.45512   0.30123   0.00000  Uiso   1.00
H5494  H     1.04818   0.26184   0.30227   0.00000  Uiso   1.00
C5495  C     1.01930   0.35165   0.26803   0.00000  Uiso   1.00
C5496  C     1.17428   0.28380   0.23057   0.00000  Uiso   1.00
C5497  C     0.92384   0.38974   0.32879   0.00000  Uiso   1.00
C5498  C     0.89879   0.34930   0.32507   0.00000  Uiso   1.00
C5499  C     0.95381   0.30177   0.30023   0.00000  Uiso   1.00
H5500  H     0.97441   0.27546   0.38921   0.00000  Uiso   1.00
H5501  H     1.09933   0.33644   0.43934   0.00000  Uiso   1.00
O5502  O     1.10103   0.29069   0.37586   0.00000  Uiso   1.00
H5503  H     0.99391   0.34218   0.42826   0.00000  Uiso   1.00
H5504  H     1.05047   0.29159   0.28092   0.00000  Uiso   1.00
C5505  C     0.91051   0.38243   0.28308   0.00000  Uiso   1.00
H5506  H     1.11925   0.38097   0.25514   0.00000  Uiso   1.00
H5507  H     1.06405   0.30894   0.33974   0.00000  Uiso   1.00
H5508  H     0.93234   0.41672   0.26580   0.00000  Uiso   1.00
H5509  H     1.06632   0.43733   0.40498   0.00000  Uiso   1.00
C5510  C     0.89895   0.33897   0.43830   0.00000  Uiso   1.00
C5511  C     1.07384   0.29305   0.38050   0.00000  Uiso   1.00
H5512  H     1.09873   0.28496   0.24560   0.00000  Uiso   1.00
H5513  H     1.04009   0.35939   0.33655   0.00000  Uiso   1.00
C5514  C     1.03180   0.36323   0.29178   0.00000  Uiso   1.00
C5515  C     0.98859   0.26602   0.28442   0.00000  Uiso   1.00
H5516  H     1.07806   0.28303   0.30216   0.00000  Uiso   1.00
O5517  O     1.02001   0.36230   0.24174   0.00000  Uiso   1.00
C5518  C     1.11446   0.33472   0.45631   0.00000  Uiso   1.00
N5519  N     1.10419   0.42634   0.29687   0.00000  Uiso   1.00
C5520  C     0.91450   0.36347   0.36987   0.00000  Uiso   1.00
C5521  C     0.98764   0.34332   0.40768   0.00000  Uiso   1.00
C5522  C     1.07235   0.25349   0.26751   0.00000  Uiso   1.00
H5523  H     1.11880   0.34613   0.26882   0.00000  Uiso   1.00
C5524  C     1.05790   0.30398   0.35984   0.00000  Uiso   1.00
H5525  H     0.96939   0.43724   0.30581   0.00000  Uiso   1.00
O5526  O     1.18312   0.25003   0.40440   0.00000  Uiso   1.00
C5527  C     0.90882   0.37213   0.31252   0.00000  Uiso   1.00
H5528  H     0.94917   0.30108   0.27923   0.00000  Uiso   1.00
H5529  H     1.16374   0.39501   0.22561   0.00000  Uiso   1.00
C5530  C     1.06200   0.28875   0.40621   0.00000  Uiso   1.00
C5531  C     0.91337   0.35905   0.45532   0.00000  Uiso   1.00
H5532  H     1.02260   0.29528   0.43014   0.00000  Uiso   1.00
C5533  C     0.98389   0.29125   0.30384   0.00000  Uiso   1.00
H5534  H     0.98952   0.27211   0.26290   0.00000  Uiso   1.00
C5535  C     0.91251   0.36200   0.26003   0.00000  Uiso   1.00
H5536  H     1.09264   0.44002   0.42897   0.00000  Uiso   1.00
C5537  C     1.10320   0.27015   0.42081   0.00000  Uiso   1.00
C5538  C     1.14101   0.26905   0.39125   0.00000  Uiso   1.00
C5539  C     1.03036   0.30608   0.36321   0.00000  Uiso   1.00
C5540  C     1.00589   0.31108   0.34410   0.00000  Uiso   1.00
H5541  H     1.18027   0.27963   0.31687   0.00000  Uiso   1.00
H5542  H     0.98819   0.34782   0.36019   0.00000  Uiso   1.00
H5543  H     0.95362   0.39179   0.27660   0.00000  Uiso   1.00
H5544  H     1.02976   0.25258   0.25568   0.00000  Uiso   1.00
C5545  C     1.07121   0.44500   0.42671   0.00000  Uiso   1.00
O5546  O     0.89084   0.43005   0.44770   0.00000  Uiso   1.00
H5547  H     0.99626   0.31789   0.25325   0.00000  Uiso   1.00
C5548  C     0.93560   0.34822   0.24966   0.00000  Uiso   1.00
H5549  H     1.08002   0.38091   0.45360   0.00000  Uiso   1.00
C5550  C     0.98494   0.32564   0.36127   0.00000  Uiso   1.00
C5551  C     1.15261   0.35499   0.24156   0.00000  Uiso   1.00
C5552  C     0.88566   0.32228   0.39394   0.00000  Uiso   1.00
O5553  O     1.15907   0.23362   0.45631   0.00000  Uiso   1.00
O5554  O     0.88666   0.32224   0.36422   0.00000  Uiso   1.00
C5555  C     1.16593   0.31017   0.22680   0.00000  Uiso   1.00
H5556  H     0.96590   0.34890   0.40838   0.00000  Uiso   1.00
H5557  H     0.92225   0.44810   0.33524   0.00000  Uiso   1.00
H5558  H     1.19131   0.37094   0.22477   0.00000  Uiso   1.00
C5559  C     1.04872   0.21579   0.24217   0.00000  Uiso   1.00
H5560  H     1.14260   0.37329   0.28025   0.00000  Uiso   1.00
H5561  H     0.89080   0.41762   0.26588   0.00000  Uiso   1.00
H5562  H     0.89969   0.43884   0.30519   0.00000  Uiso   1.00
O5563  O     1.18826   0.24693   0.25672   0.00000  Uiso   1.00
H5564  H     1.11378   0.31359   0.46375   0.00000  Uiso   1.00
H5565  H     1.20759   0.24365   0.25831   0.00000  Uiso   1.00
C5566  C     1.10282   0.24347   0.46158   0.00000  Uiso   1.00
H5567  H     1.11707   0.34048   0.21876   0.00000  Uiso   1.00
N5568  N     0.95637   0.30800   0.46217   0.00000  Uiso   1.00
H5569  H     1.02472   0.46293   0.36498   0.00000  Uiso   1.00
O5570  O     0.96056   0.32420   0.21528   0.00000  Uiso   1.00
C5571  C     1.14008   0.34700   0.21462   0.00000  Uiso   1.00
N5572  N     0.96575   0.23705   0.61639   0.00000  Uiso   1.00
N5573  N     1.17240   0.31487   0.69542   0.00000  Uiso   1.00
C5574  C     0.91679   0.24920   0.52777   0.00000  Uiso   1.00
C5575  C     0.99748   0.26637   0.55376   0.00000  Uiso   1.00
O5576  O     1.16686   0.33286   0.62814   0.00000  Uiso   1.00
H5577  H     1.13088   0.26020   0.56134   0.00000  Uiso   1.00
C5578  C     1.09558   0.32762   0.51961   0.00000  Uiso   1.00
C5579  C     0.89332   0.43815   0.47501   0.00000  Uiso   1.00
C5580  C     1.17589   0.33417   0.68220   0.00000  Uiso   1.00
C5581  C     0.90703   0.46263   0.48257   0.00000  Uiso   1.00
H5582  H     1.08802   0.30646   0.55775   0.00000  Uiso   1.00
C5583  C     1.13024   0.26666   0.54103   0.00000  Uiso   1.00
C5584  C     0.96906   0.26192   0.54568   0.00000  Uiso   1.00
H5585  H     1.04849   0.34458   0.47154   0.00000  Uiso   1.00
C5586  C     1.17743   0.27802   0.53410   0.00000  Uiso   1.00
C5587  C     1.05104   0.22700   0.65962   0.00000  Uiso   1.00
C5588  C     1.14956   0.29164   0.53738   0.00000  Uiso   1.00
C5589  C     1.04919   0.26924   0.68495   0.00000  Uiso   1.00
C5590  C     1.05840   0.33585   0.48891   0.00000  Uiso   1.00
H5591  H     1.19444   0.29268   0.53271   0.00000  Uiso   1.00
O5592  O     1.01727   0.31358   0.49766   0.00000  Uiso   1.00
H5593  H     1.16311   0.31282   0.50199   0.00000  Uiso   1.00
C5594  C     0.91627   0.45729   0.57898   0.00000  Uiso   1.00
C5595  C     1.14883   0.31256   0.55997   0.00000  Uiso   1.00
C5596  C     0.88499   0.43017   0.52241   0.00000  Uiso   1.00
C5597  C     0.97407   0.29299   0.50888   0.00000  Uiso   1.00
C5598  C     1.01034   0.25093   0.57417   0.00000  Uiso   1.00
C5599  C     1.14008   0.33713   0.54809   0.00000  Uiso   1.00
C5600  C     1.01259   0.28560   0.54000   0.00000  Uiso   1.00
H5601  H     1.13512   0.24946   0.52576   0.00000  Uiso   1.00
H5602  H     1.18428   0.26356   0.55047   0.00000  Uiso   1.00
C5603  C     1.00179   0.29785   0.51606   0.00000  Uiso   1.00
C5604  C     1.17255   0.38377   0.62546   0.00000  Uiso   1.00
H5605  H     1.12709   0.37683   0.50990   0.00000  Uiso   1.00
H5606  H     1.16441   0.29179   0.59517   0.00000  Uiso   1.00
C5607  C     1.18381   0.43138   0.62451   0.00000  Uiso   1.00
C5608  C     0.90086   0.45676   0.60600   0.00000  Uiso   1.00
O5609  O     1.06964   0.23622   0.63853   0.00000  Uiso   1.00
C5610  C     1.08447   0.33892   0.49574   0.00000  Uiso   1.00
H5611  H     1.13731   0.38064   0.55334   0.00000  Uiso   1.00
C5612  C     1.07975   0.31550   0.53840   0.00000  Uiso   1.00
O5613  O     0.93144   0.26885   0.51333   0.00000  Uiso   1.00
N5614  N     1.02147   0.23659   0.59046   0.00000  Uiso   1.00
H5615  H     1.10893   0.27152   0.53736   0.00000  Uiso   1.00
C5616  C     1.05253   0.30910   0.53196   0.00000  Uiso   1.00
O5617  O     1.16348   0.38535   0.59888   0.00000  Uiso   1.00
C5618  C     1.15872   0.31193   0.58607   0.00000  Uiso   1.00
C5619  C     1.12730   0.33235   0.52009   0.00000  Uiso   1.00
C5620  C     1.20502   0.42976   0.70604   0.00000  Uiso   1.00
H5621  H     1.09319   0.39661   0.48375   0.00000  Uiso   1.00
C5622  C     0.95720   0.27520   0.52335   0.00000  Uiso   1.00
C5623  C     1.04295   0.24128   0.68186   0.00000  Uiso   1.00
H5624  H     0.89708   0.41153   0.61680   0.00000  Uiso   1.00
H5625  H     0.92604   0.43010   0.63081   0.00000  Uiso   1.00
C5626  C     1.12996   0.35635   0.50068   0.00000  Uiso   1.00
C5627  C     1.16232   0.33523   0.60089   0.00000  Uiso   1.00
O5628  O     0.95601   0.24026   0.55860   0.00000  Uiso   1.00
C5629  C     1.15688   0.36011   0.58799   0.00000  Uiso   1.00
C5630  C     1.18475   0.38242   0.68108   0.00000  Uiso   1.00
C5631  C     0.89052   0.24231   0.52031   0.00000  Uiso   1.00
C5632  C     0.96372   0.30221   0.48312   0.00000  Uiso   1.00
N5633  N     1.05378   0.29260   0.68769   0.00000  Uiso   1.00
C5634  C     1.14406   0.36093   0.56212   0.00000  Uiso   1.00
H5635  H     0.92024   0.43596   0.57424   0.00000  Uiso   1.00
C5636  C     1.14262   0.30670   0.51132   0.00000  Uiso   1.00
C5637  C     1.18319   0.40689   0.63864   0.00000  Uiso   1.00
H5638  H     1.13171   0.29266   0.49937   0.00000  Uiso   1.00
C5639  C     1.17209   0.35898   0.63980   0.00000  Uiso   1.00
C5640  C     1.17861   0.35898   0.66691   0.00000  Uiso   1.00
C5641  C     0.93126   0.23482   0.54930   0.00000  Uiso   1.00
C5642  C     1.04303   0.31937   0.50670   0.00000  Uiso   1.00
N5643  N     1.09106   0.23487   0.47953   0.00000  Uiso   1.00
O5644  O     1.03857   0.29036   0.54790   0.00000  Uiso   1.00
C5645  C     1.18801   0.40719   0.66688   0.00000  Uiso   1.00
C5646  C     1.21277   0.24222   0.61319   0.00000  Uiso   1.00
C5647  C     1.10616   0.35306   0.48019   0.00000  Uiso   1.00
C5648  C     1.09770   0.38107   0.46803   0.00000  Uiso   1.00
H5649  H     1.11725   0.23446   0.61159   0.00000  Uiso   1.00
H5650  H     1.17693   0.26824   0.51323   0.00000  Uiso   1.00
O5651  O     1.18983   0.38156   0.70861   0.00000  Uiso   1.00
C5652  C     1.10305   0.21856   0.60570   0.00000  Uiso   1.00
H5653  H     1.15061   0.35762   0.49091   0.00000  Uiso   1.00
C5654  C     1.02898   0.22964   0.70318   0.00000  Uiso   1.00
N5655  N     1.20271   0.26233   0.60529   0.00000  Uiso   1.00
C5656  C     0.90457   0.43155   0.62412   0.00000  Uiso   1.00
O5657  O     1.19757   0.43194   0.67860   0.00000  Uiso   1.00
N5658  N     1.18338   0.45179   0.61188   0.00000  Uiso   1.00
N5659  N     0.92385   0.37561   0.46838   0.00000  Uiso   1.00
H5660  H     0.88132   0.25594   0.50603   0.00000  Uiso   1.00
C5661  C     0.89784   0.45443   0.52991   0.00000  Uiso   1.00
H5662  H     0.92374   0.21491   0.70597   0.00000  Uiso   1.00
H5663  H     0.89376   0.43261   0.64341   0.00000  Uiso   1.00
H5664  H     1.16190   0.22099   0.55514   0.00000  Uiso   1.00
C5665  C     1.07711   0.21741   0.61873   0.00000  Uiso   1.00
C5666  C     0.88157   0.42335   0.49612   0.00000  Uiso   1.00
C5667  C     0.96244   0.21447   0.61681   0.00000  Uiso   1.00
C5668  C     0.93253   0.35304   0.83794   0.00000  Uiso   1.00
H5669  H     1.02647   0.21987   0.94419   0.00000  Uiso   1.00
C5670  C     0.91000   0.42911   0.78892   0.00000  Uiso   1.00
C5671  C     0.97200   0.42769   0.93773   0.00000  Uiso   1.00
C5672  C     1.17605   0.38060   0.95566   0.00000  Uiso   1.00
C5673  C     1.04721   0.33236   0.93941   0.00000  Uiso   1.00
H5674  H     0.96922   0.33248   0.82990   0.00000  Uiso   1.00
O5675  O     1.05668   0.25349   0.78546   0.00000  Uiso   1.00
C5676  C     1.10953   0.32892   0.85821   0.00000  Uiso   1.00
H5677  H     0.95561   0.27649   0.87853   0.00000  Uiso   1.00
H5678  H     1.15484   0.22956   0.86868   0.00000  Uiso   1.00
C5679  C     0.89076   0.43742   0.80835   0.00000  Uiso   1.00
H5680  H     0.93444   0.24857   0.80210   0.00000  Uiso   1.00
N5681  N     0.96355   0.39182   0.75926   0.00000  Uiso   1.00
C5682  C     0.99512   0.23264   0.73632   0.00000  Uiso   1.00
H5683  H     0.90294   0.26481   0.79770   0.00000  Uiso   1.00
C5684  C     0.92197   0.26147   0.78839   0.00000  Uiso   1.00
O5685  O     1.04835   0.42309   0.90248   0.00000  Uiso   1.00
C5686  C     0.94459   0.39766   0.77284   0.00000  Uiso   1.00
C5687  C     0.94822   0.23371   0.75405   0.00000  Uiso   1.00
H5688  H     1.02631   0.31102   0.88434   0.00000  Uiso   1.00
H5689  H     0.93261   0.28036   0.78622   0.00000  Uiso   1.00
C5690  C     0.95993   0.33129   0.87297   0.00000  Uiso   1.00
C5691  C     1.17481   0.45242   0.82674   0.00000  Uiso   1.00
C5692  C     0.95939   0.38050   0.94987   0.00000  Uiso   1.00
H5693  H     1.15347   0.26433   0.73728   0.00000  Uiso   1.00
C5694  C     1.07507   0.40634   0.85578   0.00000  Uiso   1.00
C5695  C     1.05865   0.21420   0.81705   0.00000  Uiso   1.00
C5696  C     1.05625   0.34983   0.91833   0.00000  Uiso   1.00
H5697  H     1.21330   0.26960   0.88383   0.00000  Uiso   1.00
C5698  C     0.90318   0.22085   0.76477   0.00000  Uiso   1.00
C5699  C     0.89657   0.39230   0.82920   0.00000  Uiso   1.00
C5700  C     1.20784   0.43267   0.76251   0.00000  Uiso   1.00
H5701  H     1.03379   0.24871   0.92494   0.00000  Uiso   1.00
O5702  O     0.97951   0.45322   0.94548   0.00000  Uiso   1.00
C5703  C     0.96453   0.40814   0.95677   0.00000  Uiso   1.00
H5704  H     0.89763   0.21841   0.78675   0.00000  Uiso   1.00
H5705  H     0.90425   0.21424   0.91021   0.00000  Uiso   1.00
O5706  O     0.91963   0.44691   0.76904   0.00000  Uiso   1.00
C5707  C     0.95623   0.34218   0.91973   0.00000  Uiso   1.00
C5708  C     1.03766   0.22688   0.92681   0.00000  Uiso   1.00
C5709  C     1.17431   0.27019   0.86534   0.00000  Uiso   1.00
C5710  C     1.16753   0.30382   0.79334   0.00000  Uiso   1.00
H5711  H     1.17798   0.26267   0.76312   0.00000  Uiso   1.00
H5712  H     1.15747   0.24726   0.89890   0.00000  Uiso   1.00
H5713  H     0.97845   0.30482   0.93072   0.00000  Uiso   1.00
H5714  H     1.13340   0.23270   0.83030   0.00000  Uiso   1.00
C5715  C     1.16545   0.27693   0.75076   0.00000  Uiso   1.00
H5716  H     0.88371   0.45975   0.94913   0.00000  Uiso   1.00
N5717  N     0.99064   0.27936   0.78609   0.00000  Uiso   1.00
C5718  C     1.06977   0.38728   0.87703   0.00000  Uiso   1.00
C5719  C     1.15971   0.28393   0.81703   0.00000  Uiso   1.00
C5720  C     1.08323   0.23845   0.94993   0.00000  Uiso   1.00
C5721  C     1.14437   0.29913   0.83905   0.00000  Uiso   1.00
H5722  H     1.01094   0.31858   0.85192   0.00000  Uiso   1.00
C5723  C     1.16810   0.24323   0.87953   0.00000  Uiso   1.00
C5724  C     1.05444   0.39486   0.89940   0.00000  Uiso   1.00
C5725  C     1.12726   0.27805   0.78177   0.00000  Uiso   1.00
H5726  H     1.02641   0.21515   0.90862   0.00000  Uiso   1.00
C5727  C     0.93824   0.33769   0.94507   0.00000  Uiso   1.00
H5728  H     1.09225   0.28270   0.75616   0.00000  Uiso   1.00
C5729  C     1.14951   0.29614   0.76923   0.00000  Uiso   1.00
C5730  C     1.00162   0.26034   0.79366   0.00000  Uiso   1.00
C5731  C     0.96799   0.39261   0.90290   0.00000  Uiso   1.00
C5732  C     1.19622   0.28429   0.88343   0.00000  Uiso   1.00
C5733  C     1.12958   0.29337   0.88599   0.00000  Uiso   1.00
C5734  C     1.12561   0.31853   0.83663   0.00000  Uiso   1.00
H5735  H     1.08077   0.23919   0.89158   0.00000  Uiso   1.00
C5736  C     0.98278   0.31467   0.88626   0.00000  Uiso   1.00
H5737  H     0.97387   0.26935   0.74291   0.00000  Uiso   1.00
C5738  C     1.07815   0.35969   0.87654   0.00000  Uiso   1.00
C5739  C     1.15544   0.36275   0.94749   0.00000  Uiso   1.00
C5740  C     1.09751   0.23655   0.80700   0.00000  Uiso   1.00
C5741  C     0.97707   0.28371   0.87961   0.00000  Uiso   1.00
C5742  C     0.97288   0.24633   0.74557   0.00000  Uiso   1.00
H5743  H     1.12934   0.33375   0.77035   0.00000  Uiso   1.00
H5744  H     1.12521   0.33168   0.81793   0.00000  Uiso   1.00
C5745  C     1.07534   0.34258   0.89922   0.00000  Uiso   1.00
H5746  H     1.17808   0.28645   0.73628   0.00000  Uiso   1.00
C5747  C     1.14839   0.28738   0.86539   0.00000  Uiso   1.00
C5748  C     1.18466   0.45809   0.80088   0.00000  Uiso   1.00
N5749  N     1.13823   0.34886   0.93963   0.00000  Uiso   1.00
N5750  N     1.08001   0.42208   0.83914   0.00000  Uiso   1.00
O5751  O     1.09281   0.35202   0.85312   0.00000  Uiso   1.00
H5752  H     1.07314   0.27877   0.93676   0.00000  Uiso   1.00
C5753  C     0.91364   0.36137   0.85741   0.00000  Uiso   1.00
H5754  H     1.18776   0.23360   0.88646   0.00000  Uiso   1.00
H5755  H     0.91747   0.34362   0.94092   0.00000  Uiso   1.00
O5756  O     1.03063   0.38365   0.94184   0.00000  Uiso   1.00
H5757  H     1.19059   0.30346   0.78751   0.00000  Uiso   1.00
C5758  C     1.11025   0.31444   0.88343   0.00000  Uiso   1.00
C5759  C     1.08367   0.25448   0.78910   0.00000  Uiso   1.00
H5760  H     1.18314   0.24788   0.83046   0.00000  Uiso   1.00
C5761  C     0.96267   0.37261   0.92340   0.00000  Uiso   1.00
H5762  H     0.89296   0.23072   0.88016   0.00000  Uiso   1.00
C5763  C     1.19330   0.43209   0.84010   0.00000  Uiso   1.00
H5764  H     1.15385   0.33238   0.74389   0.00000  Uiso   1.00
H5765  H     0.88980   0.26605   0.73945   0.00000  Uiso   1.00
H5766  H     0.98748   0.27930   0.85989   0.00000  Uiso   1.00
C5767  C     1.13709   0.26524   0.80541   0.00000  Uiso   1.00
H5768  H     0.98971   0.27125   0.89356   0.00000  Uiso   1.00
H5769  H     0.92076   0.28486   0.74104   0.00000  Uiso   1.00
C5770  C     1.04628   0.37543   0.91943   0.00000  Uiso   1.00
H5771  H     1.16337   0.41698   0.86865   0.00000  Uiso   1.00
O5772  O     1.08876   0.31767   0.90155   0.00000  Uiso   1.00
H5773  H     1.20501   0.30290   0.87432   0.00000  Uiso   1.00
C5774  C     0.94233   0.34249   0.89131   0.00000  Uiso   1.00
H5775  H     1.19076   0.28580   0.90436   0.00000  Uiso   1.00
H5776  H     0.99935   0.33319   0.92473   0.00000  Uiso   1.00
C5777  C     1.19782   0.40946   0.75014   0.00000  Uiso   1.00
C5778  C     1.19701   0.40697   0.72209   0.00000  Uiso   1.00
H5779  H     1.19398   0.39363   0.86336   0.00000  Uiso   1.00
C5780  C     1.01577   0.23770   0.80560   0.00000  Uiso   1.00
H5781  H     1.12892   0.28339   0.90606   0.00000  Uiso   1.00
C5782  C     1.18228   0.26991   0.83411   0.00000  Uiso   1.00
H5783  H     1.16521   0.39723   0.83920   0.00000  Uiso   1.00
C5784  C     1.04405   0.43043   0.93011   0.00000  Uiso   1.00
O5785  O     1.20642   0.34269   0.95635   0.00000  Uiso   1.00
H5786  H     1.10380   0.21568   0.90307   0.00000  Uiso   1.00
H5787  H     0.92183   0.22173   0.83604   0.00000  Uiso   1.00
C5788  C     0.92063   0.24565   0.76182   0.00000  Uiso   1.00
C5789  C     1.01042   0.32323   0.87409   0.00000  Uiso   1.00
C5790  C     0.95634   0.33882   0.84641   0.00000  Uiso   1.00
C5791  C     0.98080   0.32311   0.91668   0.00000  Uiso   1.00
C5792  C     1.03504   0.41139   0.94930   0.00000  Uiso   1.00
H5793  H     1.01393   0.34563   0.87640   0.00000  Uiso   1.00
C5794  C     0.92297   0.40419   0.78948   0.00000  Uiso   1.00
C5795  C     1.13807   0.32104   0.75463   0.00000  Uiso   1.00
O5796  O     0.97666   0.43824   0.88984   0.00000  Uiso   1.00
C5797  C     0.97001   0.41954   0.91059   0.00000  Uiso   1.00
H5798  H     1.19867   0.39985   0.81198   0.00000  Uiso   1.00
C5799  C     1.10035   0.27248   0.77477   0.00000  Uiso   1.00
C5800  C     0.91857   0.35666   0.88409   0.00000  Uiso   1.00
C5801  C     1.20177   0.37055   0.95713   0.00000  Uiso   1.00
C5802  C     0.91506   0.38469   0.80845   0.00000  Uiso   1.00
O5803  O     1.01776   0.24544   0.72539   0.00000  Uiso   1.00
C5804  C     1.08165   0.22019   0.90215   0.00000  Uiso   1.00
H5805  H     1.16322   0.32534   0.79961   0.00000  Uiso   1.00
H5806  H     0.88214   0.22069   0.75441   0.00000  Uiso   1.00
H5807  H     1.12046   0.31474   0.74190   0.00000  Uiso   1.00
C5808  C     0.91258   0.26402   0.73818   0.00000  Uiso   1.00
C5809  C     1.08477   0.26632   0.95168   0.00000  Uiso   1.00
C5810  C     1.17026   0.40702   0.96242   0.00000  Uiso   1.00
H5811  H     0.96881   0.38946   0.88082   0.00000  Uiso   1.00
H5812  H     1.18723   0.39373   0.76140   0.00000  Uiso   1.00
O5813  O     0.92953   0.36048   0.81110   0.00000  Uiso   1.00
H5814  H     1.20132   0.28012   0.83067   0.00000  Uiso   1.00
C5815  C     1.17767   0.40884   0.85446   0.00000  Uiso   1.00
H5816  H     0.90503   0.36584   0.89976   0.00000  Uiso   1.00
H5817  H     1.19959   0.45017   0.87855   0.00000  Uiso   1.00
O5818  O     0.89121   0.37685   0.85262   0.00000  Uiso   1.00
C5819  C     1.12339   0.24247   0.81416   0.00000  Uiso   1.00
C5820  C     0.88403   0.41812   0.82778   0.00000  Uiso   1.00
O5821  O     1.14368   0.41452   0.96231   0.00000  Uiso   1.00
H5822  H     0.94037   0.31614   0.95071   0.00000  Uiso   1.00
C5823  C     1.04375   0.23439   0.80201   0.00000  Uiso   1.00
C5824  C     1.06715   0.21951   0.93045   0.00000  Uiso   1.00
C5825  C     1.05052   0.45685   0.93790   0.00000  Uiso   1.00
N5826  N     1.03976   0.31844   0.95677   0.00000  Uiso   1.00
O5827  O     0.97248   0.22223   0.82385   0.00000  Uiso   1.00
C5828  C     1.00119   0.21903   0.82200   0.00000  Uiso   1.00
H5829  H     0.91747   0.25763   0.71769   0.00000  Uiso   1.00
C5830  C     1.21151   0.44474   0.86106   0.00000  Uiso   1.00
C5831  C     1.20950   0.44194   0.79256   0.00000  Uiso   1.00
C5832  C     1.20936   0.41991   0.81472   0.00000  Uiso   1.00
H5833  H     1.14297   0.46272   0.85772   0.00000  Uiso   1.00
N5834  N     1.08795   0.37761   0.96340   0.00000  Uiso   1.00
H5835  H     1.14008   0.27027   1.14741   0.00000  Uiso   1.00
H5836  H     1.02194   0.40524   0.99127   0.00000  Uiso   1.00
N5837  N     0.96416   0.41361   1.06599   0.00000  Uiso   1.00
N5838  N     1.03082   0.31573   1.19602   0.00000  Uiso   1.00
C5839  C     1.14921   0.29655   1.06017   0.00000  Uiso   1.00
H5840  H     1.07359   0.29203   1.01531   0.00000  Uiso   1.00
C5841  C     0.92436   0.40609   1.12389   0.00000  Uiso   1.00
O5842  O     0.98976   0.44152   1.12930   0.00000  Uiso   1.00
C5843  C     1.00906   0.28463   1.11050   0.00000  Uiso   1.00
C5844  C     1.12599   0.35888   1.02039   0.00000  Uiso   1.00
C5845  C     0.92043   0.42200   1.19603   0.00000  Uiso   1.00
C5846  C     0.88589   0.38355   1.10925   0.00000  Uiso   1.00
H5847  H     0.90913   0.37546   0.98035   0.00000  Uiso   1.00
H5848  H     1.06515   0.31316   1.04414   0.00000  Uiso   1.00
H5849  H     0.93664   0.38109   1.00190   0.00000  Uiso   1.00
C5850  C     1.11338   0.34689   0.99770   0.00000  Uiso   1.00
H5851  H     0.99251   0.27262   1.01158   0.00000  Uiso   1.00
C5852  C     1.13826   0.31491   1.03851   0.00000  Uiso   1.00
O5853  O     1.18472   0.45278   0.97455   0.00000  Uiso   1.00
C5854  C     0.99845   0.23323   1.20031   0.00000  Uiso   1.00
H5855  H     1.09358   0.43009   0.96693   0.00000  Uiso   1.00
C5856  C     1.15363   0.39687   1.09127   0.00000  Uiso   1.00
H5857  H     0.91984   0.34902   0.99976   0.00000  Uiso   1.00
H5858  H     0.90818   0.43268   0.98980   0.00000  Uiso   1.00
C5859  C     0.91472   0.40716   1.15047   0.00000  Uiso   1.00
H5860  H     1.03880   0.29954   1.02179   0.00000  Uiso   1.00
C5861  C     1.04331   0.44365   0.98406   0.00000  Uiso   1.00
O5862  O     1.07588   0.41600   1.17993   0.00000  Uiso   1.00
C5863  C     1.14515   0.43997   1.19552   0.00000  Uiso   1.00
C5864  C     1.13281   0.30179   1.18802   0.00000  Uiso   1.00
H5865  H     0.94355   0.25960   1.02957   0.00000  Uiso   1.00
C5866  C     1.01658   0.24276   1.03294   0.00000  Uiso   1.00
C5867  C     1.13557   0.39905   1.04509   0.00000  Uiso   1.00
C5868  C     0.95891   0.29323   1.13529   0.00000  Uiso   1.00
C5869  C     0.98517   0.27703   1.09800   0.00000  Uiso   1.00
C5870  C     0.94990   0.35661   0.96721   0.00000  Uiso   1.00
C5871  C     1.15444   0.44275   1.11978   0.00000  Uiso   1.00
H5872  H     1.09988   0.42389   1.13069   0.00000  Uiso   1.00
C5873  C     1.15673   0.45891   0.97680   0.00000  Uiso   1.00
C5874  C     1.10012   0.27896   0.97178   0.00000  Uiso   1.00
H5875  H     0.98357   0.35951   0.99471   0.00000  Uiso   1.00
C5876  C     1.05822   0.29459   1.03188   0.00000  Uiso   1.00
C5877  C     1.12431   0.28617   1.14202   0.00000  Uiso   1.00
O5878  O     1.00950   0.29585   1.13637   0.00000  Uiso   1.00
C5879  C     1.10897   0.23406   0.99129   0.00000  Uiso   1.00
C5880  C     1.11272   0.26292   0.99228   0.00000  Uiso   1.00
O5881  O     1.12635   0.38702   1.02193   0.00000  Uiso   1.00
H5882  H     0.93000   0.23062   1.01275   0.00000  Uiso   1.00
C5883  C     0.97442   0.34455   0.98353   0.00000  Uiso   1.00
C5884  C     1.13893   0.43714   1.14671   0.00000  Uiso   1.00
C5885  C     1.14707   0.38408   1.06657   0.00000  Uiso   1.00
H5886  H     1.15874   0.38390   1.10933   0.00000  Uiso   1.00
C5887  C     1.04641   0.45293   1.01348   0.00000  Uiso   1.00
C5888  C     0.91048   0.29351   1.13263   0.00000  Uiso   1.00
H5889  H     1.07201   0.43927   1.04920   0.00000  Uiso   1.00
O5890  O     1.14717   0.35502   1.06590   0.00000  Uiso   1.00
H5891  H     0.96554   0.33046   1.00019   0.00000  Uiso   1.00
H5892  H     1.15935   0.44634   1.21186   0.00000  Uiso   1.00
C5893  C     1.11608   0.31803   0.99442   0.00000  Uiso   1.00
C5894  C     0.95885   0.31565   1.18787   0.00000  Uiso   1.00
O5895  O     1.20600   0.34911   1.10404   0.00000  Uiso   1.00
C5896  C     1.03419   0.26894   1.06924   0.00000  Uiso   1.00
C5897  C     1.13632   0.43951   0.97112   0.00000  Uiso   1.00
C5898  C     1.11247   0.42871   1.15048   0.00000  Uiso   1.00
O5899  O     0.90966   0.39614   1.10139   0.00000  Uiso   1.00
C5900  C     1.13709   0.34356   1.04057   0.00000  Uiso   1.00
C5901  C     1.10898   0.44615   0.97200   0.00000  Uiso   1.00
H5902  H     1.05591   0.22466   1.03727   0.00000  Uiso   1.00
H5903  H     1.15735   0.32518   1.11133   0.00000  Uiso   1.00
H5904  H     1.20717   0.29841   0.98901   0.00000  Uiso   1.00
C5905  C     1.19088   0.42675   0.96734   0.00000  Uiso   1.00
H5906  H     1.21061   0.41452   1.17253   0.00000  Uiso   1.00
N5907  N     1.01510   0.37571   1.17159   0.00000  Uiso   1.00
C5908  C     1.19465   0.34263   1.12765   0.00000  Uiso   1.00
H5909  H     1.08105   0.24097   1.07510   0.00000  Uiso   1.00
C5910  C     1.12710   0.30199   1.01534   0.00000  Uiso   1.00
H5911  H     1.18562   0.41741   1.13287   0.00000  Uiso   1.00
H5912  H     1.11246   0.30181   1.19871   0.00000  Uiso   1.00
C5913  C     1.02870   0.38197   1.18970   0.00000  Uiso   1.00
C5914  C     1.17000   0.32909   1.17771   0.00000  Uiso   1.00
H5915  H     0.96712   0.25391   1.06568   0.00000  Uiso   1.00
C5916  C     1.09979   0.36425   0.97846   0.00000  Uiso   1.00
C5917  C     1.14958   0.42471   1.09466   0.00000  Uiso   1.00
C5918  C     0.98351   0.31188   1.17494   0.00000  Uiso   1.00
H5919  H     1.05474   0.24624   1.00945   0.00000  Uiso   1.00
C5920  C     0.98371   0.30085   1.14807   0.00000  Uiso   1.00
C5921  C     1.00918   0.25995   1.05755   0.00000  Uiso   1.00
C5922  C     0.94972   0.41623   1.11722   0.00000  Uiso   1.00
N5923  N     1.19462   0.21470   1.19216   0.00000  Uiso   1.00
C5924  C     1.00842   0.31411   1.18688   0.00000  Uiso   1.00
C5925  C     1.18374   0.43970   1.13018   0.00000  Uiso   1.00
H5926  H     1.08882   0.27636   1.07941   0.00000  Uiso   1.00
H5927  H     1.08465   0.32072   1.16241   0.00000  Uiso   1.00
C5928  C     0.96382   0.43022   1.13687   0.00000  Uiso   1.00
H5929  H     1.00990   0.25099   0.99036   0.00000  Uiso   1.00
C5930  C     1.16897   0.32987   1.12918   0.00000  Uiso   1.00
C5931  C     1.05760   0.26725   1.04835   0.00000  Uiso   1.00
H5932  H     1.10464   0.35010   1.17210   0.00000  Uiso   1.00
H5933  H     1.20085   0.43562   1.19968   0.00000  Uiso   1.00
H5934  H     0.99035   0.33187   0.97246   0.00000  Uiso   1.00
H5935  H     1.05575   0.41290   1.03382   0.00000  Uiso   1.00
H5936  H     0.99067   0.23231   1.17796   0.00000  Uiso   1.00
C5937  C     1.18451   0.45074   1.15961   0.00000  Uiso   1.00
O5938  O     1.12646   0.27442   1.01470   0.00000  Uiso   1.00
N5939  N     1.15856   0.28198   1.07623   0.00000  Uiso   1.00
C5940  C     0.99888   0.25115   1.00958   0.00000  Uiso   1.00
H5941  H     0.96426   0.41264   0.97822   0.00000  Uiso   1.00
C5942  C     0.93004   0.42080   1.16904   0.00000  Uiso   1.00
H5943  H     0.94357   0.26090   0.99290   0.00000  Uiso   1.00
H5944  H     1.10253   0.27786   1.14326   0.00000  Uiso   1.00
H5945  H     1.05068   0.28889   1.10562   0.00000  Uiso   1.00
O5946  O     0.89070   0.39323   1.15800   0.00000  Uiso   1.00
C5947  C     1.20694   0.43581   1.17777   0.00000  Uiso   1.00
C5948  C     1.11905   0.43321   1.20003   0.00000  Uiso   1.00
C5949  C     1.04668   0.24422   1.03112   0.00000  Uiso   1.00
C5950  C     1.12859   0.31144   1.15951   0.00000  Uiso   1.00
H5951  H     1.10163   0.25822   1.05062   0.00000  Uiso   1.00
H5952  H     1.01046   0.25231   1.20164   0.00000  Uiso   1.00
C5953  C     1.03295   0.28174   1.09506   0.00000  Uiso   1.00
C5954  C     0.95508   0.43280   1.16353   0.00000  Uiso   1.00
C5955  C     0.95775   0.41553   1.08841   0.00000  Uiso   1.00
H5956  H     1.12757   0.29110   1.12072   0.00000  Uiso   1.00
O5957  O     0.96031   0.27789   1.11154   0.00000  Uiso   1.00
C5958  C     0.93432   0.29890   1.14739   0.00000  Uiso   1.00
H5959  H     1.17647   0.27158   1.21063   0.00000  Uiso   1.00
C5960  C     1.15707   0.32372   1.15365   0.00000  Uiso   1.00
C5961  C     1.06590   0.43252   1.02859   0.00000  Uiso   1.00
O5962  O     0.90934   0.31982   1.18426   0.00000  Uiso   1.00
C5963  C     1.15515   0.44167   1.16877   0.00000  Uiso   1.00
C5964  C     0.93474   0.31143   1.17357   0.00000  Uiso   1.00
H5965  H     1.10217   0.33978   1.13666   0.00000  Uiso   1.00
C5966  C     1.08422   0.26023   1.06418   0.00000  Uiso   1.00
C5967  C     1.04606   0.39049   1.21150   0.00000  Uiso   1.00
C5968  C     0.98644   0.26407   1.07346   0.00000  Uiso   1.00
H5969  H     1.08303   0.42936   1.01523   0.00000  Uiso   1.00
C5970  C     1.10396   0.33138   1.15709   0.00000  Uiso   1.00
C5971  C     1.10254   0.42500   1.17730   0.00000  Uiso   1.00
H5972  H     1.13571   0.43807   1.02878   0.00000  Uiso   1.00
C5973  C     0.94678   0.24631   1.01104   0.00000  Uiso   1.00
C5974  C     0.91132   0.33211   1.21009   0.00000  Uiso   1.00
C5975  C     1.14380   0.43907   1.07278   0.00000  Uiso   1.00
C5976  C     1.13849   0.42641   1.04820   0.00000  Uiso   1.00
N5977  N     0.89036   0.28959   1.12020   0.00000  Uiso   1.00
H5978  H     0.97971   0.23731   1.21199   0.00000  Uiso   1.00
H5979  H     1.21104   0.30982   1.04868   0.00000  Uiso   1.00
H5980  H     0.89311   0.45088   1.01933   0.00000  Uiso   1.00
C5981  C     1.19541   0.34172   1.17690   0.00000  Uiso   1.00
H5982  H     1.00689   0.43643   1.02932   0.00000  Uiso   1.00
C5983  C     0.89318   0.44743   0.99712   0.00000  Uiso   1.00
H5984  H     1.14356   0.28182   1.18701   0.00000  Uiso   1.00
C5985  C     1.01829   0.45649   1.02848   0.00000  Uiso   1.00
C5986  C     1.09379   0.22248   0.97007   0.00000  Uiso   1.00
C5987  C     1.15294   0.32166   1.20203   0.00000  Uiso   1.00
C5988  C     1.06808   0.40826   1.20616   0.00000  Uiso   1.00
H5989  H     1.19940   0.44600   1.11463   0.00000  Uiso   1.00
H5990  H     1.20145   0.27897   1.02850   0.00000  Uiso   1.00
O5991  O     0.96858   0.44519   1.18530   0.00000  Uiso   1.00
C5992  C     1.20869   0.34845   1.15223   0.00000  Uiso   1.00
C5993  C     0.97415   0.23225   1.00877   0.00000  Uiso   1.00
C5994  C     1.00191   0.45675   1.14901   0.00000  Uiso   1.00
C5995  C     0.97399   0.21689   0.98113   0.00000  Uiso   1.00
H5996  H     0.88543   0.44734   1.12479   0.00000  Uiso   1.00
C5997  C     0.89670   0.24452   1.20595   0.00000  Uiso   1.00
H5998  H     1.20626   0.34727   1.19631   0.00000  Uiso   1.00
N5999  N     1.20696   0.37272   1.03703   0.00000  Uiso   1.00
C6000  C     1.05407   0.46230   0.96520   0.00000  Uiso   1.00
H6001  H     1.13781   0.36478   1.20009   0.00000  Uiso   1.00
C6002  C     1.00616   0.21552   1.04136   0.00000  Uiso   1.00
N6003  N     0.91856   0.25263   1.20180   0.00000  Uiso   1.00
H6004  H     1.11782   0.22034   1.00655   0.00000  Uiso   1.00
O6005  O     1.10411   0.30678   0.97099   0.00000  Uiso   1.00
C6006  C     0.92728   0.36558   0.98747   0.00000  Uiso   1.00
C6007  C     0.99153   0.45896   1.17588   0.00000  Uiso   1.00
C6008  C     1.03182   0.41856   0.97511   0.00000  Uiso   1.00
H6009  H     0.88225   0.37261   1.06742   0.00000  Uiso   1.00
H6010  H     0.97259   0.23169   0.96445   0.00000  Uiso   1.00
H6011  H     0.92659   0.57317   0.39634   0.00000  Uiso   1.00
H6012  H     0.97202   0.49165   0.39848   0.00000  Uiso   1.00
O6013  O     0.94328   0.64517   0.31942   0.00000  Uiso   1.00
H6014  H     1.18227   0.66792   0.43111   0.00000  Uiso   1.00
C6015  C     0.94082   0.63188   0.27113   0.00000  Uiso   1.00
C6016  C     1.14459   0.59198   0.42657   0.00000  Uiso   1.00
C6017  C     1.15774   0.52784   0.35183   0.00000  Uiso   1.00
H6018  H     1.06230   0.70114   0.41293   0.00000  Uiso   1.00
H6019  H     0.88793   0.69540   0.26300   0.00000  Uiso   1.00
C6020  C     1.07160   0.51419   0.24811   0.00000  Uiso   1.00
H6021  H     0.92726   0.50756   0.43225   0.00000  Uiso   1.00
C6022  C     1.04669   0.52963   0.24809   0.00000  Uiso   1.00
N6023  N     1.14891   0.54806   0.28414   0.00000  Uiso   1.00
C6024  C     1.15921   0.54573   0.30492   0.00000  Uiso   1.00
N6025  N     1.18953   0.63915   0.28451   0.00000  Uiso   1.00
O6026  O     1.13040   0.52260   0.34656   0.00000  Uiso   1.00
H6027  H     1.09745   0.54651   0.26543   0.00000  Uiso   1.00
C6028  C     1.15227   0.68918   0.25633   0.00000  Uiso   1.00
H6029  H     1.18346   0.56269   0.45795   0.00000  Uiso   1.00
O6030  O     0.91647   0.50834   0.32052   0.00000  Uiso   1.00
C6031  C     1.08652   0.48925   0.41013   0.00000  Uiso   1.00
C6032  C     0.97334   0.61083   0.30097   0.00000  Uiso   1.00
C6033  C     0.95223   0.62919   0.29795   0.00000  Uiso   1.00
C6034  C     1.06844   0.47461   0.42993   0.00000  Uiso   1.00
C6035  C     0.98577   0.61012   0.32671   0.00000  Uiso   1.00
C6036  C     1.19494   0.71225   0.27643   0.00000  Uiso   1.00
C6037  C     0.90183   0.49908   0.29878   0.00000  Uiso   1.00
C6038  C     1.17242   0.54111   0.33150   0.00000  Uiso   1.00
C6039  C     1.12044   0.59410   0.33382   0.00000  Uiso   1.00
C6040  C     1.12530   0.61553   0.28180   0.00000  Uiso   1.00
H6041  H     1.00324   0.47383   0.21582   0.00000  Uiso   1.00
H6042  H     1.12598   0.48499   0.43054   0.00000  Uiso   1.00
C6043  C     0.97015   0.59483   0.25465   0.00000  Uiso   1.00
C6044  C     1.16252   0.61224   0.42103   0.00000  Uiso   1.00
C6045  C     0.90302   0.70704   0.32824   0.00000  Uiso   1.00
C6046  C     1.10179   0.60268   0.28978   0.00000  Uiso   1.00
H6047  H     0.97446   0.51760   0.33169   0.00000  Uiso   1.00
H6048  H     1.04847   0.54309   0.28850   0.00000  Uiso   1.00
O6049  O     1.00585   0.57960   0.28492   0.00000  Uiso   1.00
C6050  C     0.98862   0.54978   0.38630   0.00000  Uiso   1.00
H6051  H     0.93355   0.68340   0.35096   0.00000  Uiso   1.00
C6052  C     0.91461   0.50317   0.27495   0.00000  Uiso   1.00
H6053  H     1.06110   0.47763   0.23079   0.00000  Uiso   1.00
C6054  C     1.14280   0.60931   0.32665   0.00000  Uiso   1.00
H6055  H     1.15630   0.54675   0.44187   0.00000  Uiso   1.00
C6056  C     1.07764   0.57420   0.32142   0.00000  Uiso   1.00
O6057  O     1.20761   0.57137   0.31671   0.00000  Uiso   1.00
C6058  C     1.13119   0.58036   0.40549   0.00000  Uiso   1.00
C6059  C     1.03594   0.54450   0.26992   0.00000  Uiso   1.00
C6060  C     1.01641   0.61723   0.42443   0.00000  Uiso   1.00
C6061  C     1.16969   0.62013   0.39472   0.00000  Uiso   1.00
C6062  C     0.92213   0.68712   0.33213   0.00000  Uiso   1.00
H6063  H     1.09319   0.48399   0.26973   0.00000  Uiso   1.00
C6064  C     1.03159   0.52867   0.22330   0.00000  Uiso   1.00
N6065  N     0.95702   0.53180   0.27381   0.00000  Uiso   1.00
C6066  C     0.98188   0.70230   0.21775   0.00000  Uiso   1.00
H6067  H     0.96868   0.54867   0.37625   0.00000  Uiso   1.00
C6068  C     1.03975   0.54786   0.41012   0.00000  Uiso   1.00
C6069  C     1.20796   0.55141   0.36287   0.00000  Uiso   1.00
C6070  C     0.93729   0.51872   0.27449   0.00000  Uiso   1.00
C6071  C     0.90943   0.52223   0.36603   0.00000  Uiso   1.00
H6072  H     0.99527   0.48552   0.32466   0.00000  Uiso   1.00
C6073  C     0.99736   0.57274   0.40158   0.00000  Uiso   1.00
O6074  O     0.97819   0.59141   0.40741   0.00000  Uiso   1.00
C6075  C     0.94985   0.61433   0.25046   0.00000  Uiso   1.00
H6076  H     1.11343   0.52632   0.23890   0.00000  Uiso   1.00
H6077  H     1.16544   0.67226   0.24785   0.00000  Uiso   1.00
C6078  C     1.11454   0.51387   0.36859   0.00000  Uiso   1.00
C6079  C     1.15580   0.60995   0.37244   0.00000  Uiso   1.00
C6080  C     0.94285   0.61833   0.22331   0.00000  Uiso   1.00
C6081  C     1.00516   0.52772   0.38139   0.00000  Uiso   1.00
O6082  O     1.16220   0.61734   0.34622   0.00000  Uiso   1.00
H6083  H     0.92630   0.54012   0.44716   0.00000  Uiso   1.00
H6084  H     1.14797   0.66193   0.43526   0.00000  Uiso   1.00
H6085  H     1.09070   0.55326   0.23241   0.00000  Uiso   1.00
C6086  C     1.00002   0.56123   0.23874   0.00000  Uiso   1.00
C6087  C     1.16925   0.62977   0.29160   0.00000  Uiso   1.00
O6088  O     0.88199   0.66739   0.44754   0.00000  Uiso   1.00
C6089  C     1.01476   0.56249   0.26433   0.00000  Uiso   1.00
H6090  H     1.05952   0.48188   0.28031   0.00000  Uiso   1.00
C6091  C     1.06831   0.49664   0.22230   0.00000  Uiso   1.00
C6092  C     1.13464   0.59083   0.37928   0.00000  Uiso   1.00
C6093  C     1.08372   0.61125   0.24605   0.00000  Uiso   1.00
H6094  H     0.92709   0.53655   0.36217   0.00000  Uiso   1.00
H6095  H     1.11557   0.56593   0.41143   0.00000  Uiso   1.00
H6096  H     0.94406   0.53220   0.41469   0.00000  Uiso   1.00
C6097  C     1.10939   0.62215   0.23827   0.00000  Uiso   1.00
H6098  H     1.14327   0.68039   0.27501   0.00000  Uiso   1.00
H6099  H     1.17890   0.68075   0.32423   0.00000  Uiso   1.00
C6100  C     1.14547   0.61857   0.30076   0.00000  Uiso   1.00
C6101  C     1.19641   0.55504   0.33650   0.00000  Uiso   1.00
C6102  C     1.16847   0.52588   0.37782   0.00000  Uiso   1.00
N6103  N     1.05960   0.56017   0.32646   0.00000  Uiso   1.00
C6104  C     1.05410   0.64487   0.43854   0.00000  Uiso   1.00
C6105  C     0.91548   0.67192   0.28615   0.00000  Uiso   1.00
C6106  C     1.09962   0.59056   0.31501   0.00000  Uiso   1.00
C6107  C     1.07577   0.49618   0.27408   0.00000  Uiso   1.00
O6108  O     1.01837   0.68650   0.45278   0.00000  Uiso   1.00
H6109  H     1.01264   0.51830   0.32546   0.00000  Uiso   1.00
C6110  C     1.02572   0.48559   0.36700   0.00000  Uiso   1.00
C6111  C     1.16158   0.55993   0.46039   0.00000  Uiso   1.00
O6112  O     1.03602   0.59658   0.41976   0.00000  Uiso   1.00
C6113  C     1.02382   0.57239   0.41080   0.00000  Uiso   1.00
C6114  C     0.99904   0.50165   0.36494   0.00000  Uiso   1.00
C6115  C     1.07463   0.48170   0.45882   0.00000  Uiso   1.00
C6116  C     1.09420   0.53571   0.24572   0.00000  Uiso   1.00
C6117  C     0.98817   0.61548   0.41781   0.00000  Uiso   1.00
C6118  C     1.20597   0.61958   0.44919   0.00000  Uiso   1.00
H6119  H     1.18742   0.71042   0.21981   0.00000  Uiso   1.00
O6120  O     1.13149   0.62226   0.25556   0.00000  Uiso   1.00
H6121  H     1.03905   0.61215   0.23495   0.00000  Uiso   1.00
C6122  C     0.98389   0.59528   0.27941   0.00000  Uiso   1.00
C6123  C     1.16812   0.65805   0.44567   0.00000  Uiso   1.00
H6124  H     1.05913   0.54775   0.42004   0.00000  Uiso   1.00
O6125  O     0.91762   0.50222   0.22718   0.00000  Uiso   1.00
N6126  N     0.91985   0.63256   0.41016   0.00000  Uiso   1.00
O6127  O     1.11762   0.58186   0.35863   0.00000  Uiso   1.00
C6128  C     1.19470   0.53558   0.38309   0.00000  Uiso   1.00
H6129  H     1.06117   0.71239   0.45636   0.00000  Uiso   1.00
N6130  N     0.99672   0.60893   0.34717   0.00000  Uiso   1.00
H6131  H     1.08770   0.60552   0.46078   0.00000  Uiso   1.00
H6132  H     1.02427   0.46803   0.41889   0.00000  Uiso   1.00
C6133  C     0.92607   0.52965   0.42793   0.00000  Uiso   1.00
C6134  C     0.94295   0.63343   0.41764   0.00000  Uiso   1.00
C6135  C     0.90280   0.49584   0.25123   0.00000  Uiso   1.00
O6136  O     0.92041   0.65256   0.26468   0.00000  Uiso   1.00
C6137  C     0.99435   0.50692   0.33438   0.00000  Uiso   1.00
C6138  C     1.06150   0.61641   0.22846   0.00000  Uiso   1.00
H6139  H     1.03239   0.69681   0.37259   0.00000  Uiso   1.00
H6140  H     1.07529   0.51808   0.34706   0.00000  Uiso   1.00
H6141  H     1.20399   0.69163   0.27407   0.00000  Uiso   1.00
C6142  C     1.08636   0.51081   0.36634   0.00000  Uiso   1.00
O6143  O     0.97838   0.57807   0.23362   0.00000  Uiso   1.00
C6144  C     0.97981   0.65910   0.43579   0.00000  Uiso   1.00
C6145  C     1.20967   0.52924   0.40766   0.00000  Uiso   1.00
O6146  O     1.08012   0.59924   0.27136   0.00000  Uiso   1.00
H6147  H     1.03750   0.49146   0.34876   0.00000  Uiso   1.00
C6148  C     0.92682   0.66781   0.31238   0.00000  Uiso   1.00
C6149  C     1.03904   0.48411   0.41985   0.00000  Uiso   1.00
O6150  O     0.95978   0.67981   0.44455   0.00000  Uiso   1.00
C6151  C     1.04168   0.49764   0.39137   0.00000  Uiso   1.00
C6152  C     1.02952   0.52582   0.39490   0.00000  Uiso   1.00
H6153  H     0.95505   0.49794   0.36576   0.00000  Uiso   1.00
H6154  H     1.06729   0.50366   0.46061   0.00000  Uiso   1.00
C6155  C     1.12815   0.50634   0.39266   0.00000  Uiso   1.00
C6156  C     1.07229   0.49850   0.38737   0.00000  Uiso   1.00
H6157  H     1.09573   0.70626   0.39969   0.00000  Uiso   1.00
O6158  O     1.15662   0.50965   0.39629   0.00000  Uiso   1.00
H6159  H     0.90546   0.58413   0.42229   0.00000  Uiso   1.00
C6160  C     1.11354   0.49326   0.41289   0.00000  Uiso   1.00
C6161  C     0.97376   0.48840   0.37610   0.00000  Uiso   1.00
C6162  C     1.18349   0.70342   0.32991   0.00000  Uiso   1.00
H6163  H     0.96109   0.69279   0.26435   0.00000  Uiso   1.00
N6164  N     1.07719   0.64664   0.44207   0.00000  Uiso   1.00
H6165  H     1.19137   0.68838   0.38465   0.00000  Uiso   1.00
C6166  C     1.17484   0.62571   0.44553   0.00000  Uiso   1.00
C6167  C     1.02626   0.64194   0.43420   0.00000  Uiso   1.00
H6168  H     1.08079   0.50940   0.29105   0.00000  Uiso   1.00
C6169  C     0.90009   0.50619   0.34390   0.00000  Uiso   1.00
H6170  H     1.03098   0.49752   0.43526   0.00000  Uiso   1.00
C6171  C     0.97005   0.63620   0.42367   0.00000  Uiso   1.00
C6172  C     1.14436   0.58533   0.45755   0.00000  Uiso   1.00
C6173  C     1.20443   0.70538   0.37759   0.00000  Uiso   1.00
C6174  C     1.20988   0.70469   0.34665   0.00000  Uiso   1.00
C6175  C     1.00787   0.54340   0.21861   0.00000  Uiso   1.00
H6176  H     1.18474   0.63713   0.39121   0.00000  Uiso   1.00
H6177  H     0.97255   0.68331   0.22091   0.00000  Uiso   1.00
H6178  H     1.16842   0.71078   0.34323   0.00000  Uiso   1.00
C6179  C     1.00796   0.66298   0.44144   0.00000  Uiso   1.00
H6180  H     1.13316   0.69363   0.24408   0.00000  Uiso   1.00
C6181  C     0.89458   0.52254   0.39017   0.00000  Uiso   1.00
C6182  C     0.90747   0.57041   0.40463   0.00000  Uiso   1.00
C6183  C     0.90084   0.54080   0.41336   0.00000  Uiso   1.00
C6184  C     0.89080   0.71109   0.30337   0.00000  Uiso   1.00
C6185  C     0.89799   0.69350   0.28202   0.00000  Uiso   1.00
C6186  C     0.89105   0.70844   0.42268   0.00000  Uiso   1.00
H6187  H     0.97146   0.46723   0.37014   0.00000  Uiso   1.00
H6188  H     1.08234   0.71011   0.34708   0.00000  Uiso   1.00
H6189  H     0.89214   0.58132   0.39238   0.00000  Uiso   1.00
H6190  H     1.10569   0.68557   0.45250   0.00000  Uiso   1.00
C6191  C     0.88360   0.71080   0.37565   0.00000  Uiso   1.00
H6192  H     1.21142   0.59804   0.44434   0.00000  Uiso   1.00
H6193  H     1.14240   0.50521   0.46314   0.00000  Uiso   1.00
H6194  H     1.00268   0.69636   0.22047   0.00000  Uiso   1.00
H6195  H     0.92416   0.70299   0.21673   0.00000  Uiso   1.00
C6196  C     1.18459   0.68387   0.62923   0.00000  Uiso   1.00
C6197  C     1.09147   0.65863   0.59866   0.00000  Uiso   1.00
C6198  C     1.19292   0.53569   0.66955   0.00000  Uiso   1.00
C6199  C     1.10588   0.66524   0.62149   0.00000  Uiso   1.00
C6200  C     1.13856   0.57479   0.62977   0.00000  Uiso   1.00
H6201  H     1.14338   0.69209   0.54173   0.00000  Uiso   1.00
C6202  C     0.99163   0.56504   0.55094   0.00000  Uiso   1.00
N6203  N     0.99674   0.64024   0.48959   0.00000  Uiso   1.00
C6204  C     1.18709   0.55606   0.62546   0.00000  Uiso   1.00
H6205  H     1.19975   0.64847   0.67274   0.00000  Uiso   1.00
O6206  O     0.96364   0.71178   0.70814   0.00000  Uiso   1.00
H6207  H     1.11377   0.53693   0.56258   0.00000  Uiso   1.00
H6208  H     1.07694   0.52774   0.59630   0.00000  Uiso   1.00
H6209  H     1.09043   0.58144   0.57997   0.00000  Uiso   1.00
H6210  H     0.95260   0.47087   0.54417   0.00000  Uiso   1.00
C6211  C     0.88645   0.70675   0.60222   0.00000  Uiso   1.00
C6212  C     1.13057   0.53270   0.57540   0.00000  Uiso   1.00
C6213  C     1.00344   0.63125   0.66191   0.00000  Uiso   1.00
C6214  C     0.96110   0.56015   0.70738   0.00000  Uiso   1.00
C6215  C     1.10395   0.54238   0.50608   0.00000  Uiso   1.00
C6216  C     1.11173   0.69647   0.47311   0.00000  Uiso   1.00
O6217  O     0.97203   0.55714   0.57127   0.00000  Uiso   1.00
H6218  H     1.10178   0.68366   0.48833   0.00000  Uiso   1.00
H6219  H     1.17555   0.70337   0.62363   0.00000  Uiso   1.00
H6220  H     0.93432   0.52195   0.48923   0.00000  Uiso   1.00
H6221  H     1.16505   0.65485   0.51986   0.00000  Uiso   1.00
H6222  H     1.18426   0.49539   0.65169   0.00000  Uiso   1.00
C6223  C     0.91257   0.71367   0.61071   0.00000  Uiso   1.00
H6224  H     0.89428   0.48874   0.63979   0.00000  Uiso   1.00
C6225  C     1.17198   0.66658   0.56090   0.00000  Uiso   1.00
H6226  H     1.18583   0.67706   0.68709   0.00000  Uiso   1.00
C6227  C     1.12370   0.55374   0.48980   0.00000  Uiso   1.00
C6228  C     1.14363   0.52813   0.62509   0.00000  Uiso   1.00
C6229  C     0.92407   0.61525   0.56089   0.00000  Uiso   1.00
O6230  O     0.96415   0.60539   0.53751   0.00000  Uiso   1.00
H6231  H     1.14006   0.62585   0.47370   0.00000  Uiso   1.00
C6232  C     1.11861   0.57717   0.47383   0.00000  Uiso   1.00
C6233  C     1.11849   0.61876   0.62939   0.00000  Uiso   1.00
C6234  C     1.12132   0.53677   0.60411   0.00000  Uiso   1.00
H6235  H     0.93108   0.55191   0.60462   0.00000  Uiso   1.00
C6236  C     1.00503   0.65773   0.67388   0.00000  Uiso   1.00
H6237  H     1.17073   0.60919   0.48768   0.00000  Uiso   1.00
C6238  C     1.09369   0.52227   0.61071   0.00000  Uiso   1.00
C6239  C     1.20893   0.54725   0.69339   0.00000  Uiso   1.00
H6240  H     1.17118   0.66395   0.46622   0.00000  Uiso   1.00
C6241  C     1.16419   0.54867   0.66666   0.00000  Uiso   1.00
H6242  H     1.14940   0.54435   0.57094   0.00000  Uiso   1.00
C6243  C     1.07154   0.57626   0.48925   0.00000  Uiso   1.00
H6244  H     0.90972   0.51313   0.56452   0.00000  Uiso   1.00
C6245  C     1.08154   0.67910   0.58057   0.00000  Uiso   1.00
N6246  N     1.13416   0.62116   0.69808   0.00000  Uiso   1.00
N6247  N     1.01665   0.50233   0.56654   0.00000  Uiso   1.00
C6248  C     0.97074   0.54977   0.67943   0.00000  Uiso   1.00
C6249  C     1.07675   0.55190   0.50533   0.00000  Uiso   1.00
H6250  H     1.11104   0.52368   0.51787   0.00000  Uiso   1.00
C6251  C     0.90578   0.61149   0.58108   0.00000  Uiso   1.00
C6252  C     1.10396   0.71251   0.61166   0.00000  Uiso   1.00
O6253  O     1.05584   0.53966   0.51924   0.00000  Uiso   1.00
O6254  O     0.95708   0.65965   0.68604   0.00000  Uiso   1.00
C6255  C     1.03326   0.55677   0.52445   0.00000  Uiso   1.00
H6256  H     1.14529   0.69914   0.57573   0.00000  Uiso   1.00
O6257  O     0.95759   0.69237   0.61605   0.00000  Uiso   1.00
C6258  C     1.10340   0.58608   0.59709   0.00000  Uiso   1.00
H6259  H     1.15781   0.62913   0.54239   0.00000  Uiso   1.00
H6260  H     1.16555   0.57477   0.51648   0.00000  Uiso   1.00
C6261  C     1.01335   0.54886   0.54400   0.00000  Uiso   1.00
O6262  O     1.04677   0.58917   0.48861   0.00000  Uiso   1.00
C6263  C     0.92915   0.56981   0.59178   0.00000  Uiso   1.00
N6264  N     1.00200   0.60976   0.65269   0.00000  Uiso   1.00
N6265  N     1.13414   0.70369   0.67264   0.00000  Uiso   1.00
C6266  C     0.91042   0.46950   0.50956   0.00000  Uiso   1.00
H6267  H     0.93729   0.64816   0.61191   0.00000  Uiso   1.00
C6268  C     1.16764   0.55264   0.51220   0.00000  Uiso   1.00
H6269  H     1.18237   0.57605   0.58608   0.00000  Uiso   1.00
C6270  C     1.06556   0.67193   0.55834   0.00000  Uiso   1.00
H6271  H     1.13366   0.51084   0.57317   0.00000  Uiso   1.00
C6272  C     0.95778   0.59009   0.70505   0.00000  Uiso   1.00
O6273  O     1.08721   0.63173   0.59158   0.00000  Uiso   1.00
H6274  H     0.92842   0.71272   0.47925   0.00000  Uiso   1.00
H6275  H     1.14319   0.50296   0.49850   0.00000  Uiso   1.00
C6276  C     0.90791   0.58856   0.59638   0.00000  Uiso   1.00
O6277  O     1.11704   0.64557   0.63910   0.00000  Uiso   1.00
H6278  H     1.12799   0.66784   0.56199   0.00000  Uiso   1.00
C6279  C     1.11304   0.69279   0.62762   0.00000  Uiso   1.00
H6280  H     1.13271   0.51903   0.64265   0.00000  Uiso   1.00
C6281  C     1.01502   0.52273   0.55643   0.00000  Uiso   1.00
C6282  C     0.91941   0.52132   0.50613   0.00000  Uiso   1.00
H6283  H     1.02207   0.55951   0.70888   0.00000  Uiso   1.00
C6284  C     1.12492   0.69869   0.65144   0.00000  Uiso   1.00
C6285  C     0.98694   0.58811   0.53452   0.00000  Uiso   1.00
C6286  C     0.89635   0.46942   0.55762   0.00000  Uiso   1.00
C6287  C     1.00606   0.59578   0.51446   0.00000  Uiso   1.00
H6288  H     1.09677   0.49948   0.61124   0.00000  Uiso   1.00
C6289  C     1.12049   0.56770   0.60982   0.00000  Uiso   1.00
H6290  H     0.91505   0.58645   0.65064   0.00000  Uiso   1.00
N6291  N     1.02649   0.68824   0.61527   0.00000  Uiso   1.00
H6292  H     0.90109   0.55283   0.64024   0.00000  Uiso   1.00
C6293  C     0.94592   0.59861   0.55607   0.00000  Uiso   1.00
C6294  C     0.94960   0.57415   0.57279   0.00000  Uiso   1.00
H6295  H     0.92259   0.63241   0.54783   0.00000  Uiso   1.00
H6296  H     1.15820   0.51403   0.61531   0.00000  Uiso   1.00
C6297  C     1.15280   0.54389   0.48594   0.00000  Uiso   1.00
C6298  C     1.14541   0.68152   0.56125   0.00000  Uiso   1.00
C6299  C     1.10394   0.61241   0.60495   0.00000  Uiso   1.00
H6300  H     1.08939   0.52871   0.63292   0.00000  Uiso   1.00
C6301  C     1.02921   0.58059   0.50943   0.00000  Uiso   1.00
C6302  C     1.15883   0.55213   0.63706   0.00000  Uiso   1.00
H6303  H     0.96731   0.52722   0.67877   0.00000  Uiso   1.00
H6304  H     1.15000   0.60851   0.65681   0.00000  Uiso   1.00
C6305  C     1.09257   0.58778   0.47342   0.00000  Uiso   1.00
C6306  C     1.13650   0.60005   0.64051   0.00000  Uiso   1.00
C6307  C     0.89512   0.65939   0.59978   0.00000  Uiso   1.00
C6308  C     0.99844   0.70151   0.46872   0.00000  Uiso   1.00
H6309  H     1.14794   0.53718   0.67528   0.00000  Uiso   1.00
C6310  C     0.92154   0.66437   0.60845   0.00000  Uiso   1.00
C6311  C     0.95071   0.48950   0.53002   0.00000  Uiso   1.00
C6312  C     1.20514   0.54394   0.64161   0.00000  Uiso   1.00
H6313  H     0.91242   0.47920   0.46781   0.00000  Uiso   1.00
C6314  C     1.03175   0.66941   0.67667   0.00000  Uiso   1.00
C6315  C     0.93072   0.69070   0.61187   0.00000  Uiso   1.00
C6316  C     1.17221   0.64544   0.53980   0.00000  Uiso   1.00
C6317  C     1.19316   0.50359   0.67122   0.00000  Uiso   1.00
C6318  C     1.00094   0.62035   0.50076   0.00000  Uiso   1.00
H6319  H     1.17899   0.49817   0.68786   0.00000  Uiso   1.00
H6320  H     1.18946   0.55016   0.50914   0.00000  Uiso   1.00
H6321  H     0.95901   0.50720   0.54126   0.00000  Uiso   1.00
H6322  H     0.96284   0.48970   0.51289   0.00000  Uiso   1.00
C6323  C     0.88459   0.58696   0.61632   0.00000  Uiso   1.00
H6324  H     1.16130   0.64758   0.60034   0.00000  Uiso   1.00
N6325  N     1.05117   0.66656   0.54013   0.00000  Uiso   1.00
H6326  H     0.97755   0.60238   0.70225   0.00000  Uiso   1.00
N6327  N     0.89673   0.64039   0.51098   0.00000  Uiso   1.00
F6328  F     1.05479   0.65396   0.66960   0.00000  Uiso   1.00
H6329  H     0.92700   0.48634   0.62626   0.00000  Uiso   1.00
H6330  H     1.16297   0.56912   0.67636   0.00000  Uiso   1.00
C6331  C     1.19959   0.70335   0.53347   0.00000  Uiso   1.00
H6332  H     0.90368   0.64017   0.69317   0.00000  Uiso   1.00
H6333  H     0.92432   0.54002   0.51942   0.00000  Uiso   1.00
H6334  H     1.13450   0.69550   0.47851   0.00000  Uiso   1.00
H6335  H     1.18766   0.63266   0.58516   0.00000  Uiso   1.00
C6336  C     1.19862   0.67113   0.60354   0.00000  Uiso   1.00
H6337  H     0.89902   0.52687   0.49872   0.00000  Uiso   1.00
C6338  C     0.92069   0.49518   0.52327   0.00000  Uiso   1.00
H6339  H     1.16995   0.67038   0.63946   0.00000  Uiso   1.00
H6340  H     0.95811   0.55702   0.66154   0.00000  Uiso   1.00
C6341  C     0.90570   0.48556   0.62029   0.00000  Uiso   1.00
C6342  C     0.91028   0.66034   0.70103   0.00000  Uiso   1.00
C6343  C     1.20885   0.68681   0.64970   0.00000  Uiso   1.00
H6344  H     0.99279   0.55506   0.67659   0.00000  Uiso   1.00
H6345  H     0.94498   0.59490   0.68643   0.00000  Uiso   1.00
H6346  H     1.15952   0.54053   0.53085   0.00000  Uiso   1.00
C6347  C     0.90234   0.49830   0.54854   0.00000  Uiso   1.00
C6348  C     1.17885   0.65312   0.58679   0.00000  Uiso   1.00
C6349  C     0.93583   0.67264   0.69979   0.00000  Uiso   1.00
C6350  C     1.19408   0.68606   0.55549   0.00000  Uiso   1.00
C6351  C     0.89644   0.57516   0.64373   0.00000  Uiso   1.00
C6352  C     0.98250   0.67157   0.68540   0.00000  Uiso   1.00
H6353  H     1.21286   0.49452   0.67270   0.00000  Uiso   1.00
H6354  H     0.93554   0.46752   0.58361   0.00000  Uiso   1.00
C6355  C     1.01124   0.70535   0.61929   0.00000  Uiso   1.00
C6356  C     1.03347   0.69603   0.68725   0.00000  Uiso   1.00
C6357  C     1.19676   0.56789   0.60158   0.00000  Uiso   1.00
C6358  C     1.15797   0.61229   0.46842   0.00000  Uiso   1.00
C6359  C     1.15576   0.51339   0.48187   0.00000  Uiso   1.00
H6360  H     0.91758   0.55636   0.71379   0.00000  Uiso   1.00
H6361  H     1.19344   0.63833   0.53951   0.00000  Uiso   1.00
C6362  C     1.20759   0.69029   0.57953   0.00000  Uiso   1.00
H6363  H     1.19002   0.70160   0.51307   0.00000  Uiso   1.00
C6364  C     1.20350   0.67043   0.67602   0.00000  Uiso   1.00
C6365  C     1.08637   0.70593   0.58903   0.00000  Uiso   1.00
H6366  H     0.90156   0.50248   0.60683   0.00000  Uiso   1.00
C6367  C     0.88485   0.63188   0.59231   0.00000  Uiso   1.00
C6368  C     1.01131   0.71051   0.69548   0.00000  Uiso   1.00
C6369  C     0.98618   0.69739   0.69579   0.00000  Uiso   1.00
H6370  H     0.88226   0.50789   0.54141   0.00000  Uiso   1.00
C6371  C     0.88322   0.63512   0.49215   0.00000  Uiso   1.00
H6372  H     1.17733   0.50722   0.48252   0.00000  Uiso   1.00
H6373  H     0.93493   0.52599   0.71068   0.00000  Uiso   1.00
F6374  F     1.05852   0.70660   0.68960   0.00000  Uiso   1.00
H6375  H     1.06346   0.46836   0.47228   0.00000  Uiso   1.00
C6376  C     0.93848   0.69880   0.70980   0.00000  Uiso   1.00
H6377  H     1.21300   0.62644   0.46877   0.00000  Uiso   1.00
C6378  C     0.88933   0.67524   0.71358   0.00000  Uiso   1.00
H6379  H     1.19764   0.54618   0.71221   0.00000  Uiso   1.00
H6380  H     1.09585   0.47751   0.46650   0.00000  Uiso   1.00
C6381  C     0.96935   0.69851   0.46432   0.00000  Uiso   1.00
C6382  C     0.99381   0.65408   0.89035   0.00000  Uiso   1.00
C6383  C     1.02974   0.64684   0.85468   0.00000  Uiso   1.00
H6384  H     1.05630   0.47238   0.92099   0.00000  Uiso   1.00
C6385  C     0.90562   0.53286   0.89955   0.00000  Uiso   1.00
C6386  C     0.98580   0.53400   0.77318   0.00000  Uiso   1.00
O6387  O     1.05337   0.54495   0.74509   0.00000  Uiso   1.00
C6388  C     1.04257   0.64275   0.90392   0.00000  Uiso   1.00
C6389  C     1.00647   0.56116   0.89435   0.00000  Uiso   1.00
C6390  C     0.90257   0.67733   0.88219   0.00000  Uiso   1.00
H6391  H     1.17612   0.47720   0.76307   0.00000  Uiso   1.00
C6392  C     1.13838   0.61089   0.71861   0.00000  Uiso   1.00
C6393  C     0.99492   0.63123   0.81575   0.00000  Uiso   1.00
C6394  C     1.00944   0.66704   0.78416   0.00000  Uiso   1.00
C6395  C     1.11416   0.67999   0.88303   0.00000  Uiso   1.00
O6396  O     1.00333   0.54345   0.91748   0.00000  Uiso   1.00
C6397  C     1.14391   0.59910   0.74358   0.00000  Uiso   1.00
H6398  H     0.97995   0.61461   0.81647   0.00000  Uiso   1.00
C6399  C     1.20360   0.62661   0.92728   0.00000  Uiso   1.00
C6400  C     1.16732   0.67854   0.87721   0.00000  Uiso   1.00
C6401  C     1.07124   0.51356   0.81307   0.00000  Uiso   1.00
H6402  H     0.91896   0.46523   0.94486   0.00000  Uiso   1.00
H6403  H     1.00467   0.56765   0.82624   0.00000  Uiso   1.00
C6404  C     1.14249   0.69118   0.87593   0.00000  Uiso   1.00
C6405  C     0.89205   0.70072   0.72413   0.00000  Uiso   1.00
H6406  H     0.98681   0.60155   0.76667   0.00000  Uiso   1.00
H6407  H     1.09561   0.66260   0.91835   0.00000  Uiso   1.00
C6408  C     1.10733   0.65682   0.86266   0.00000  Uiso   1.00
C6409  C     1.06478   0.60360   0.82076   0.00000  Uiso   1.00
C6410  C     1.08241   0.59785   0.80048   0.00000  Uiso   1.00
N6411  N     1.16624   0.55330   0.83870   0.00000  Uiso   1.00
O6412  O     1.02843   0.52844   0.79592   0.00000  Uiso   1.00
C6413  C     0.93854   0.54473   0.74941   0.00000  Uiso   1.00
C6414  C     1.07814   0.60883   0.77404   0.00000  Uiso   1.00
C6415  C     0.99578   0.49702   0.93104   0.00000  Uiso   1.00
N6416  N     1.20793   0.70652   0.81240   0.00000  Uiso   1.00
C6417  C     1.05438   0.62204   0.76822   0.00000  Uiso   1.00
C6418  C     0.99681   0.50356   0.95907   0.00000  Uiso   1.00
H6419  H     1.11828   0.53679   0.94119   0.00000  Uiso   1.00
C6420  C     1.20957   0.60078   0.91675   0.00000  Uiso   1.00
C6421  C     1.18998   0.69353   0.87106   0.00000  Uiso   1.00
C6422  C     0.89656   0.48282   0.79472   0.00000  Uiso   1.00
H6423  H     0.98575   0.64602   0.90980   0.00000  Uiso   1.00
H6424  H     1.08837   0.64619   0.86930   0.00000  Uiso   1.00
H6425  H     1.05049   0.62968   0.74730   0.00000  Uiso   1.00
C6426  C     0.89615   0.57013   0.80833   0.00000  Uiso   1.00
C6427  C     0.98230   0.46431   0.89749   0.00000  Uiso   1.00
H6428  H     1.12720   0.64847   0.91146   0.00000  Uiso   1.00
H6429  H     1.16949   0.65666   0.88425   0.00000  Uiso   1.00
C6430  C     1.01485   0.60810   0.88093   0.00000  Uiso   1.00
H6431  H     1.17764   0.59919   0.86457   0.00000  Uiso   1.00
H6432  H     0.88780   0.69322   0.78586   0.00000  Uiso   1.00
N6433  N     0.91563   0.65808   0.87880   0.00000  Uiso   1.00
H6434  H     1.08013   0.51033   0.94972   0.00000  Uiso   1.00
C6435  C     1.09582   0.70582   0.88431   0.00000  Uiso   1.00
H6436  H     0.99724   0.67567   0.89292   0.00000  Uiso   1.00
C6437  C     1.02619   0.54311   0.74883   0.00000  Uiso   1.00
H6438  H     1.16165   0.60990   0.89529   0.00000  Uiso   1.00
C6439  C     1.06722   0.53225   0.76639   0.00000  Uiso   1.00
H6440  H     1.07050   0.60054   0.84225   0.00000  Uiso   1.00
C6441  C     1.01429   0.60055   0.85363   0.00000  Uiso   1.00
C6442  C     0.91630   0.52024   0.92660   0.00000  Uiso   1.00
C6443  C     1.10875   0.53311   0.73711   0.00000  Uiso   1.00
C6444  C     1.00887   0.57360   0.84650   0.00000  Uiso   1.00
C6445  C     1.09472   0.52522   0.76111   0.00000  Uiso   1.00
C6446  C     0.92423   0.52654   0.87509   0.00000  Uiso   1.00
H6447  H     0.98929   0.67783   0.78084   0.00000  Uiso   1.00
N6448  N     0.96951   0.47213   0.82699   0.00000  Uiso   1.00
H6449  H     0.92207   0.57609   0.89738   0.00000  Uiso   1.00
H6450  H     1.15509   0.57892   0.87957   0.00000  Uiso   1.00
H6451  H     0.88680   0.57254   0.88537   0.00000  Uiso   1.00
H6452  H     0.94196   0.57660   0.78218   0.00000  Uiso   1.00
C6453  C     1.11672   0.66784   0.91219   0.00000  Uiso   1.00
O6454  O     1.11415   0.49587   0.82977   0.00000  Uiso   1.00
C6455  C     1.17314   0.56966   0.92921   0.00000  Uiso   1.00
H6456  H     0.98621   0.64893   0.82529   0.00000  Uiso   1.00
H6457  H     0.92194   0.53585   0.94135   0.00000  Uiso   1.00
O6458  O     1.10747   0.58462   0.80722   0.00000  Uiso   1.00
O6459  O     1.19129   0.59768   0.73191   0.00000  Uiso   1.00
C6460  C     1.12254   0.59753   0.76253   0.00000  Uiso   1.00
C6461  C     1.00950   0.58936   0.90042   0.00000  Uiso   1.00
C6462  C     1.13888   0.48547   0.82203   0.00000  Uiso   1.00
H6463  H     1.02022   0.66795   0.84781   0.00000  Uiso   1.00
C6464  C     1.14941   0.49070   0.79523   0.00000  Uiso   1.00
C6465  C     1.00470   0.55317   0.86644   0.00000  Uiso   1.00
C6466  C     1.16056   0.56545   0.81878   0.00000  Uiso   1.00
C6467  C     1.04122   0.61783   0.81483   0.00000  Uiso   1.00
C6468  C     1.17019   0.59372   0.75098   0.00000  Uiso   1.00
O6469  O     1.20167   0.58682   0.78904   0.00000  Uiso   1.00
C6470  C     1.17543   0.58805   0.77843   0.00000  Uiso   1.00
C6471  C     1.15440   0.57876   0.79449   0.00000  Uiso   1.00
C6472  C     1.12740   0.58576   0.78746   0.00000  Uiso   1.00
H6473  H     0.94550   0.53574   0.87592   0.00000  Uiso   1.00
C6474  C     1.21181   0.56104   0.89167   0.00000  Uiso   1.00
C6475  C     0.96986   0.54256   0.75112   0.00000  Uiso   1.00
H6476  H     0.99677   0.62840   0.74300   0.00000  Uiso   1.00
C6477  C     1.12097   0.54112   0.96349   0.00000  Uiso   1.00
C6478  C     0.90019   0.56064   0.77954   0.00000  Uiso   1.00
O6479  O     0.99806   0.52679   0.85910   0.00000  Uiso   1.00
H6480  H     1.00916   0.59691   0.92170   0.00000  Uiso   1.00
H6481  H     0.94707   0.60057   0.72083   0.00000  Uiso   1.00
H6482  H     1.05135   0.65104   0.85230   0.00000  Uiso   1.00
H6483  H     1.15578   0.58376   0.93043   0.00000  Uiso   1.00
C6484  C     1.05497   0.52579   0.79180   0.00000  Uiso   1.00
C6485  C     0.99753   0.51695   0.90980   0.00000  Uiso   1.00
C6486  C     1.17054   0.59415   0.88482   0.00000  Uiso   1.00
C6487  C     0.91516   0.47491   0.77425   0.00000  Uiso   1.00
C6488  C     1.01396   0.53470   0.77332   0.00000  Uiso   1.00
H6489  H     1.16495   0.54832   0.92505   0.00000  Uiso   1.00
H6490  H     1.02088   0.67452   0.76624   0.00000  Uiso   1.00
C6491  C     1.10966   0.51307   0.78248   0.00000  Uiso   1.00
H6492  H     0.93507   0.50911   0.92406   0.00000  Uiso   1.00
C6493  C     1.03452   0.62376   0.78830   0.00000  Uiso   1.00
H6494  H     1.02110   0.67674   0.80091   0.00000  Uiso   1.00
H6495  H     0.96836   0.63309   0.76620   0.00000  Uiso   1.00
H6496  H     1.20450   0.54013   0.88934   0.00000  Uiso   1.00
O6497  O     1.09660   0.60603   0.75417   0.00000  Uiso   1.00
H6498  H     1.12600   0.68153   0.92667   0.00000  Uiso   1.00
C6499  C     1.01906   0.62495   0.83486   0.00000  Uiso   1.00
H6500  H     1.18312   0.57101   0.94828   0.00000  Uiso   1.00
H6501  H     1.20603   0.49143   0.93433   0.00000  Uiso   1.00
H6502  H     1.04520   0.66478   0.90812   0.00000  Uiso   1.00
O6503  O     0.89423   0.69897   0.93311   0.00000  Uiso   1.00
H6504  H     1.18215   0.63292   0.92816   0.00000  Uiso   1.00
C6505  C     0.90289   0.56442   0.89944   0.00000  Uiso   1.00
H6506  H     0.97672   0.52504   0.79294   0.00000  Uiso   1.00
C6507  C     0.89103   0.51056   0.79728   0.00000  Uiso   1.00
C6508  C     0.98862   0.62421   0.76430   0.00000  Uiso   1.00
C6509  C     0.98501   0.48224   0.87658   0.00000  Uiso   1.00
C6510  C     1.00737   0.63672   0.78675   0.00000  Uiso   1.00
H6511  H     1.06222   0.63380   0.89886   0.00000  Uiso   1.00
C6512  C     0.89094   0.71030   0.95856   0.00000  Uiso   1.00
C6513  C     1.02066   0.63836   0.88271   0.00000  Uiso   1.00
C6514  C     1.19039   0.58000   0.90498   0.00000  Uiso   1.00
H6515  H     1.12545   0.64302   0.86031   0.00000  Uiso   1.00
N6516  N     1.04963   0.50295   0.85934   0.00000  Uiso   1.00
H6517  H     0.97831   0.65235   0.87414   0.00000  Uiso   1.00
H6518  H     0.91165   0.56360   0.82107   0.00000  Uiso   1.00
H6519  H     1.10377   0.66461   0.84124   0.00000  Uiso   1.00
O6520  O     0.88154   0.70558   0.83582   0.00000  Uiso   1.00
C6521  C     1.09860   0.50782   0.80897   0.00000  Uiso   1.00
C6522  C     1.05922   0.50858   0.83827   0.00000  Uiso   1.00
C6523  C     0.92886   0.49444   0.75804   0.00000  Uiso   1.00
H6524  H     1.09658   0.71343   0.90548   0.00000  Uiso   1.00
C6525  C     1.01108   0.55425   0.72734   0.00000  Uiso   1.00
O6526  O     1.13690   0.50852   0.77689   0.00000  Uiso   1.00
C6527  C     0.92693   0.56878   0.76737   0.00000  Uiso   1.00
C6528  C     0.92364   0.52171   0.76239   0.00000  Uiso   1.00
C6529  C     0.88667   0.70149   0.88472   0.00000  Uiso   1.00
C6530  C     0.88278   0.71212   0.90952   0.00000  Uiso   1.00
C6531  C     0.90015   0.47466   0.95197   0.00000  Uiso   1.00
C6532  C     0.99338   0.50923   0.88172   0.00000  Uiso   1.00
H6533  H     1.11718   0.71314   0.82082   0.00000  Uiso   1.00
H6534  H     0.91465   0.53384   0.85703   0.00000  Uiso   1.00
C6535  C     1.15281   0.46702   0.83786   0.00000  Uiso   1.00
H6536  H     1.07456   0.70184   0.87759   0.00000  Uiso   1.00
H6537  H     1.21265   0.50230   0.77862   0.00000  Uiso   1.00
C6538  C     0.98285   0.55219   0.72822   0.00000  Uiso   1.00
H6539  H     1.08681   0.69759   0.83408   0.00000  Uiso   1.00
H6540  H     1.03778   0.63400   0.92396   0.00000  Uiso   1.00
H6541  H     0.89460   0.56913   0.92057   0.00000  Uiso   1.00
H6542  H     0.94623   0.48826   0.74631   0.00000  Uiso   1.00
H6543  H     0.89585   0.59301   0.80623   0.00000  Uiso   1.00
C6544  C     0.97720   0.47618   0.84928   0.00000  Uiso   1.00
C6545  C     0.98634   0.47175   0.92468   0.00000  Uiso   1.00
H6546  H     1.21029   0.50352   0.90226   0.00000  Uiso   1.00
C6547  C     1.17031   0.47525   0.78439   0.00000  Uiso   1.00
C6548  C     0.90375   0.52962   0.77998   0.00000  Uiso   1.00
C6549  C     0.89205   0.50131   0.93915   0.00000  Uiso   1.00
C6550  C     0.93609   0.54692   0.71978   0.00000  Uiso   1.00
H6551  H     0.92751   0.50544   0.87498   0.00000  Uiso   1.00
H6552  H     0.92407   0.58549   0.75196   0.00000  Uiso   1.00
N6553  N     1.11930   0.53983   0.71696   0.00000  Uiso   1.00
O6554  O     0.88148   0.46459   0.80986   0.00000  Uiso   1.00
H6555  H     1.05102   0.70929   0.81032   0.00000  Uiso   1.00
C6556  C     1.03651   0.49227   1.15897   0.00000  Uiso   1.00
C6557  C     1.03076   0.60444   1.17265   0.00000  Uiso   1.00
C6558  C     0.93775   0.53985   1.10246   0.00000  Uiso   1.00
C6559  C     0.92666   0.68045   1.14921   0.00000  Uiso   1.00
C6560  C     0.97817   0.66135   1.09752   0.00000  Uiso   1.00
C6561  C     1.08663   0.50064   1.14851   0.00000  Uiso   1.00
H6562  H     1.16499   0.48510   1.11132   0.00000  Uiso   1.00
C6563  C     0.92109   0.63259   1.13974   0.00000  Uiso   1.00
C6564  C     1.14495   0.61006   1.11967   0.00000  Uiso   1.00
C6565  C     1.05986   0.52893   1.18104   0.00000  Uiso   1.00
H6566  H     1.15466   0.61043   1.13871   0.00000  Uiso   1.00
C6567  C     0.90330   0.69986   0.98141   0.00000  Uiso   1.00
H6568  H     1.00667   0.65846   1.17509   0.00000  Uiso   1.00
O6569  O     0.90629   0.60800   1.14201   0.00000  Uiso   1.00
C6570  C     0.93882   0.50707   1.06559   0.00000  Uiso   1.00
C6571  C     1.16476   0.48656   1.06225   0.00000  Uiso   1.00
C6572  C     1.12140   0.49195   0.98151   0.00000  Uiso   1.00
H6573  H     1.08035   0.53843   1.18572   0.00000  Uiso   1.00
C6574  C     0.90921   0.50716   1.12608   0.00000  Uiso   1.00
H6575  H     1.00602   0.64175   1.20762   0.00000  Uiso   1.00
H6576  H     1.10778   0.47539   1.05067   0.00000  Uiso   1.00
H6577  H     1.15791   0.61880   1.10300   0.00000  Uiso   1.00
H6578  H     1.14175   0.58828   1.11712   0.00000  Uiso   1.00
H6579  H     0.95376   0.68394   1.02005   0.00000  Uiso   1.00
H6580  H     1.04962   0.51789   1.11289   0.00000  Uiso   1.00
F6581  F     0.91975   0.70480   1.16156   0.00000  Uiso   1.00
H6582  H     0.93561   0.47311   1.11055   0.00000  Uiso   1.00
F6583  F     0.95928   0.70763   1.12572   0.00000  Uiso   1.00
H6584  H     1.16634   0.50885   1.06874   0.00000  Uiso   1.00
H6585  H     0.93207   0.48121   1.01456   0.00000  Uiso   1.00
C6586  C     1.14844   0.47096   1.10855   0.00000  Uiso   1.00
H6587  H     1.04620   0.54682   1.18131   0.00000  Uiso   1.00
C6588  C     0.93853   0.58761   1.10994   0.00000  Uiso   1.00
C6589  C     1.09132   0.64260   1.16418   0.00000  Uiso   1.00
H6590  H     1.06792   0.54725   1.12757   0.00000  Uiso   1.00
C6591  C     1.02412   0.47303   1.14128   0.00000  Uiso   1.00
C6592  C     0.91672   0.70512   1.03301   0.00000  Uiso   1.00
C6593  C     1.04361   0.63195   1.18263   0.00000  Uiso   1.00
H6594  H     0.95689   0.70252   1.05053   0.00000  Uiso   1.00
H6595  H     1.15627   0.66933   1.10156   0.00000  Uiso   1.00
H6596  H     1.09868   0.60310   1.09139   0.00000  Uiso   1.00
H6597  H     1.20286   0.57878   1.12432   0.00000  Uiso   1.00
H6598  H     0.98044   0.70795   1.19534   0.00000  Uiso   1.00
C6599  C     0.89998   0.47626   0.98363   0.00000  Uiso   1.00
H6600  H     0.95215   0.49464   1.13299   0.00000  Uiso   1.00
H6601  H     1.08995   0.54234   1.01470   0.00000  Uiso   1.00
C6602  C     1.06584   0.62713   1.20285   0.00000  Uiso   1.00
C6603  C     0.90413   0.56027   1.13215   0.00000  Uiso   1.00
H6604  H     1.11700   0.63129   1.07990   0.00000  Uiso   1.00
H6605  H     1.02692   0.59189   1.19167   0.00000  Uiso   1.00
C6606  C     1.05208   0.53168   1.13078   0.00000  Uiso   1.00
C6607  C     1.09150   0.63608   1.19416   0.00000  Uiso   1.00
C6608  C     1.18669   0.48087   1.16368   0.00000  Uiso   1.00
H6609  H     1.03116   0.54109   1.13291   0.00000  Uiso   1.00
C6610  C     1.17147   0.68971   1.04106   0.00000  Uiso   1.00
H6611  H     0.95885   0.56710   1.07567   0.00000  Uiso   1.00
H6612  H     1.03072   0.66918   1.20095   0.00000  Uiso   1.00
H6613  H     1.00593   0.47093   1.01505   0.00000  Uiso   1.00
H6614  H     1.06364   0.52537   0.97857   0.00000  Uiso   1.00
H6615  H     0.94850   0.48688   1.05923   0.00000  Uiso   1.00
H6616  H     1.18918   0.48624   1.18553   0.00000  Uiso   1.00
C6617  C     1.05913   0.51368   1.15477   0.00000  Uiso   1.00
C6618  C     1.00773   0.47403   1.19464   0.00000  Uiso   1.00
C6619  C     1.10393   0.61795   1.14796   0.00000  Uiso   1.00
H6620  H     1.01181   0.60915   1.16122   0.00000  Uiso   1.00
H6621  H     1.04684   0.71171   1.17588   0.00000  Uiso   1.00
H6622  H     1.10844   0.49940   1.07864   0.00000  Uiso   1.00
H6623  H     1.03294   0.70014   1.14105   0.00000  Uiso   1.00
C6624  C     1.10915   0.52962   1.01188   0.00000  Uiso   1.00
N6625  N     0.99517   0.66343   1.08124   0.00000  Uiso   1.00
C6626  C     1.11251   0.47875   1.07278   0.00000  Uiso   1.00
H6627  H     0.98891   0.52330   1.07659   0.00000  Uiso   1.00
C6628  C     0.95649   0.65852   1.11708   0.00000  Uiso   1.00
C6629  C     0.98149   0.51059   1.09345   0.00000  Uiso   1.00
H6630  H     0.90832   0.66155   1.03291   0.00000  Uiso   1.00
H6631  H     0.94661   0.52323   1.05277   0.00000  Uiso   1.00
C6632  C     1.11896   0.62805   1.12246   0.00000  Uiso   1.00
C6633  C     1.14359   0.67545   1.11955   0.00000  Uiso   1.00
H6634  H     1.09027   0.48063   1.16043   0.00000  Uiso   1.00
C6635  C     1.06071   0.64525   1.15903   0.00000  Uiso   1.00
C6636  C     1.11043   0.69205   1.16230   0.00000  Uiso   1.00
C6637  C     0.90056   0.49923   1.15470   0.00000  Uiso   1.00
C6638  C     0.91655   0.58574   1.12827   0.00000  Uiso   1.00
C6639  C     1.10300   0.62470   1.09545   0.00000  Uiso   1.00
H6640  H     0.93453   0.51451   1.17794   0.00000  Uiso   1.00
H6641  H     1.11043   0.51539   1.02808   0.00000  Uiso   1.00
C6642  C     1.12416   0.65753   1.13066   0.00000  Uiso   1.00
H6643  H     1.13278   0.64194   1.20722   0.00000  Uiso   1.00
H6644  H     1.01814   0.46823   1.04911   0.00000  Uiso   1.00
H6645  H     1.05556   0.63538   1.13922   0.00000  Uiso   1.00
C6646  C     0.93556   0.49472   1.11776   0.00000  Uiso   1.00
H6647  H     1.08945   0.59938   1.14352   0.00000  Uiso   1.00
H6648  H     1.11926   0.61196   1.16212   0.00000  Uiso   1.00
C6649  C     1.10788   0.66624   1.15187   0.00000  Uiso   1.00
C6650  C     0.94824   0.51222   1.09482   0.00000  Uiso   1.00
C6651  C     0.94723   0.68235   1.12950   0.00000  Uiso   1.00
H6652  H     0.91783   0.68181   0.97864   0.00000  Uiso   1.00
N6653  N     1.17023   0.66802   1.04964   0.00000  Uiso   1.00
H6654  H     1.08688   0.49241   1.21128   0.00000  Uiso   1.00
C6655  C     0.94565   0.56521   1.09433   0.00000  Uiso   1.00
C6656  C     0.94729   0.70495   1.02994   0.00000  Uiso   1.00
H6657  H     1.10344   0.51443   1.15087   0.00000  Uiso   1.00
C6658  C     0.91307   0.50573   1.17885   0.00000  Uiso   1.00
H6659  H     0.94373   0.46903   0.98091   0.00000  Uiso   1.00
H6660  H     1.08396   0.63545   1.09365   0.00000  Uiso   1.00
C6661  C     0.91402   0.65466   1.15531   0.00000  Uiso   1.00
H6662  H     1.08719   0.49207   1.12820   0.00000  Uiso   1.00
H6663  H     1.04142   0.49659   1.01001   0.00000  Uiso   1.00
H6664  H     0.88533   0.68105   1.05152   0.00000  Uiso   1.00
H6665  H     0.98926   0.51608   1.11420   0.00000  Uiso   1.00
H6666  H     1.05704   0.66656   1.15603   0.00000  Uiso   1.00
H6667  H     1.04334   0.59092   1.15955   0.00000  Uiso   1.00
O6668  O     0.95083   0.61231   1.10467   0.00000  Uiso   1.00
C6669  C     0.94327   0.63457   1.12173   0.00000  Uiso   1.00
H6670  H     0.91681   0.50505   1.06130   0.00000  Uiso   1.00
H6671  H     0.91667   0.67615   1.06386   0.00000  Uiso   1.00
C6672  C     0.90585   0.67873   1.04553   0.00000  Uiso   1.00
C6673  C     0.91733   0.53777   1.12251   0.00000  Uiso   1.00
N6674  N     0.93663   0.62246   1.20066   0.00000  Uiso   1.00
C6675  C     1.07164   0.48245   0.98091   0.00000  Uiso   1.00
H6676  H     1.16920   0.49234   1.15621   0.00000  Uiso   1.00
C6677  C     1.04673   0.51050   1.20295   0.00000  Uiso   1.00
H6678  H     1.21113   0.56026   1.02441   0.00000  Uiso   1.00
H6679  H     0.98701   0.49026   1.08894   0.00000  Uiso   1.00
C6680  C     0.90018   0.71155   1.00652   0.00000  Uiso   1.00
H6681  H     1.12277   0.54621   1.01541   0.00000  Uiso   1.00
C6682  C     1.11338   0.63368   1.21182   0.00000  Uiso   1.00
C6683  C     1.14594   0.70214   1.12881   0.00000  Uiso   1.00
H6684  H     1.09479   0.70043   1.17639   0.00000  Uiso   1.00
C6685  C     1.10752   0.51929   0.98167   0.00000  Uiso   1.00
C6686  C     1.05867   0.48164   1.01002   0.00000  Uiso   1.00
C6687  C     1.02089   0.65119   1.19256   0.00000  Uiso   1.00
H6688  H     1.09671   0.46779   1.08449   0.00000  Uiso   1.00
N6689  N     0.99716   0.50964   0.98186   0.00000  Uiso   1.00
C6690  C     1.12862   0.71075   1.15083   0.00000  Uiso   1.00
H6691  H     1.02972   0.47191   1.11951   0.00000  Uiso   1.00
C6692  C     1.14190   0.46933   1.07876   0.00000  Uiso   1.00
H6693  H     1.20527   0.48812   1.15246   0.00000  Uiso   1.00
C6694  C     0.93077   0.48329   0.99154   0.00000  Uiso   1.00
C6695  C     1.02902   0.49031   1.18542   0.00000  Uiso   1.00
H6696  H     1.07235   0.48656   1.02737   0.00000  Uiso   1.00
H6697  H     0.99896   0.54305   1.19791   0.00000  Uiso   1.00
H6698  H     1.20893   0.58731   1.07302   0.00000  Uiso   1.00
H6699  H     1.18430   0.47617   1.06667   0.00000  Uiso   1.00
C6700  C     0.90258   0.49708   1.20381   0.00000  Uiso   1.00
H6701  H     0.93737   0.50360   0.98632   0.00000  Uiso   1.00
C6702  C     1.14818   0.48569   0.98144   0.00000  Uiso   1.00
H6703  H     1.16257   0.50287   0.97857   0.00000  Uiso   1.00
C6704  C     1.10046   0.47218   0.97951   0.00000  Uiso   1.00
H6705  H     1.20273   0.52586   1.03713   0.00000  Uiso   1.00
H6706  H     1.14201   0.54503   0.96930   0.00000  Uiso   1.00
C6707  C     1.07885   0.51168   0.97196   0.00000  Uiso   1.00
H6708  H     1.20285   0.62562   1.11795   0.00000  Uiso   1.00
H6709  H     1.16177   0.48785   1.04007   0.00000  Uiso   1.00
H6710  H     1.13153   0.47872   1.12011   0.00000  Uiso   1.00
H6711  H     0.88546   0.55869   1.14477   0.00000  Uiso   1.00
C6712  C     0.89466   0.65051   1.17540   0.00000  Uiso   1.00
H6713  H     0.88930   0.48977   1.08976   0.00000  Uiso   1.00
C6714  C     0.88410   0.50126   1.10855   0.00000  Uiso   1.00
H6715  H     1.11057   0.56005   0.96725   0.00000  Uiso   1.00
C6716  C     0.98944   0.84793   0.24776   0.00000  Uiso   1.00
C6717  C     1.07236   0.84860   0.29307   0.00000  Uiso   1.00
N6718  N     0.88656   0.90896   0.44750   0.00000  Uiso   1.00
H6719  H     1.10084   0.73901   0.35756   0.00000  Uiso   1.00
C6720  C     1.03578   0.91340   0.28823   0.00000  Uiso   1.00
C6721  C     0.88484   0.75874   0.28845   0.00000  Uiso   1.00
H6722  H     1.17724   0.93436   0.23724   0.00000  Uiso   1.00
H6723  H     0.98225   0.76312   0.28637   0.00000  Uiso   1.00
C6724  C     1.12063   0.86540   0.23397   0.00000  Uiso   1.00
C6725  C     1.14792   0.88349   0.24155   0.00000  Uiso   1.00
H6726  H     1.13075   0.88535   0.28430   0.00000  Uiso   1.00
C6727  C     0.89800   0.74162   0.21436   0.00000  Uiso   1.00
C6728  C     1.20245   0.82905   0.44476   0.00000  Uiso   1.00
C6729  C     1.06240   0.81917   0.25605   0.00000  Uiso   1.00
O6730  O     1.08486   0.87683   0.33197   0.00000  Uiso   1.00
C6731  C     1.04655   0.80673   0.41899   0.00000  Uiso   1.00
C6732  C     0.91527   0.87566   0.33351   0.00000  Uiso   1.00
C6733  C     0.89390   0.89421   0.25931   0.00000  Uiso   1.00
C6734  C     1.12715   0.77157   0.31121   0.00000  Uiso   1.00
H6735  H     0.94927   0.77469   0.28196   0.00000  Uiso   1.00
C6736  C     1.04485   0.78094   0.37773   0.00000  Uiso   1.00
C6737  C     0.91969   0.89732   0.24163   0.00000  Uiso   1.00
C6738  C     1.14999   0.84194   0.29517   0.00000  Uiso   1.00
N6739  N     1.12994   0.87095   0.42508   0.00000  Uiso   1.00
C6740  C     1.15290   0.77006   0.41658   0.00000  Uiso   1.00
H6741  H     1.15953   0.82337   0.30330   0.00000  Uiso   1.00
C6742  C     1.10349   0.83306   0.36069   0.00000  Uiso   1.00
O6743  O     1.04045   0.82966   0.43606   0.00000  Uiso   1.00
C6744  C     0.97090   0.77863   0.27517   0.00000  Uiso   1.00
C6745  C     1.03322   0.71900   0.37604   0.00000  Uiso   1.00
C6746  C     0.97024   0.93159   0.39455   0.00000  Uiso   1.00
H6747  H     1.02401   0.73148   0.36003   0.00000  Uiso   1.00
C6748  C     1.16418   0.74056   0.30099   0.00000  Uiso   1.00
H6749  H     0.93540   0.73743   0.36093   0.00000  Uiso   1.00
C6750  C     0.89314   0.72695   0.35066   0.00000  Uiso   1.00
H6751  H     0.91459   0.91075   0.22410   0.00000  Uiso   1.00
C6752  C     0.90868   0.74876   0.39455   0.00000  Uiso   1.00
H6753  H     1.02215   0.72026   0.39475   0.00000  Uiso   1.00
H6754  H     0.93539   0.90900   0.25218   0.00000  Uiso   1.00
C6755  C     1.02684   0.85023   0.42076   0.00000  Uiso   1.00
C6756  C     1.15697   0.93384   0.22880   0.00000  Uiso   1.00
C6757  C     1.06576   0.76241   0.41766   0.00000  Uiso   1.00
C6758  C     1.15726   0.92804   0.34596   0.00000  Uiso   1.00
C6759  C     1.11260   0.74620   0.42821   0.00000  Uiso   1.00
H6760  H     1.18132   0.87891   0.32219   0.00000  Uiso   1.00
H6761  H     1.07136   0.74252   0.33714   0.00000  Uiso   1.00
C6762  C     1.00597   0.80708   0.30079   0.00000  Uiso   1.00
C6763  C     0.95586   0.82188   0.29455   0.00000  Uiso   1.00
C6764  C     0.96738   0.92832   0.42371   0.00000  Uiso   1.00
C6765  C     1.05674   0.93912   0.41634   0.00000  Uiso   1.00
C6766  C     1.20029   0.83221   0.25436   0.00000  Uiso   1.00
C6767  C     1.05475   0.89291   0.29501   0.00000  Uiso   1.00
O6768  O     0.98085   0.90811   0.43676   0.00000  Uiso   1.00
C6769  C     1.12950   0.74959   0.26716   0.00000  Uiso   1.00
C6770  C     1.04132   0.80585   0.39066   0.00000  Uiso   1.00
C6771  C     1.05049   0.94104   0.32532   0.00000  Uiso   1.00
C6772  C     0.90033   0.89414   0.28976   0.00000  Uiso   1.00
C6773  C     1.08364   0.85197   0.31961   0.00000  Uiso   1.00
C6774  C     1.15035   0.88654   0.27169   0.00000  Uiso   1.00
H6775  H     1.04828   0.91876   0.37978   0.00000  Uiso   1.00
C6776  C     1.08271   0.73785   0.42734   0.00000  Uiso   1.00
C6777  C     1.07365   0.82385   0.28166   0.00000  Uiso   1.00
H6778  H     1.16736   0.96283   0.38545   0.00000  Uiso   1.00
C6779  C     1.18244   0.85401   0.25794   0.00000  Uiso   1.00
C6780  C     1.12835   0.75810   0.40864   0.00000  Uiso   1.00
H6781  H     1.20739   0.85942   0.30700   0.00000  Uiso   1.00
H6782  H     1.12353   0.75683   0.38675   0.00000  Uiso   1.00
N6783  N     0.97354   0.80486   0.36157   0.00000  Uiso   1.00
O6784  O     1.03339   0.82864   0.37460   0.00000  Uiso   1.00
O6785  O     0.98808   0.91471   0.38001   0.00000  Uiso   1.00
C6786  C     1.05705   0.75860   0.39103   0.00000  Uiso   1.00
C6787  C     1.18864   0.72388   0.30439   0.00000  Uiso   1.00
C6788  C     1.09892   0.80576   0.31946   0.00000  Uiso   1.00
O6789  O     0.95428   0.81509   0.43404   0.00000  Uiso   1.00
H6790  H     0.95214   0.81326   0.31464   0.00000  Uiso   1.00
C6791  C     0.91397   0.74593   0.36295   0.00000  Uiso   1.00
N6792  N     1.18758   0.81718   0.33784   0.00000  Uiso   1.00
O6793  O     0.91453   0.85049   0.45948   0.00000  Uiso   1.00
H6794  H     1.02447   0.91110   0.26987   0.00000  Uiso   1.00
O6795  O     1.11606   0.78721   0.33122   0.00000  Uiso   1.00
C6796  C     0.94550   0.73826   0.22596   0.00000  Uiso   1.00
C6797  C     1.11018   0.91031   0.45448   0.00000  Uiso   1.00
H6798  H     0.92129   0.85587   0.29537   0.00000  Uiso   1.00
H6799  H     1.15755   0.90798   0.27682   0.00000  Uiso   1.00
C6800  C     1.08709   0.80192   0.29379   0.00000  Uiso   1.00
C6801  C     1.19021   0.80556   0.43554   0.00000  Uiso   1.00
C6802  C     0.95972   0.81953   0.37540   0.00000  Uiso   1.00
C6803  C     1.16922   0.86357   0.28328   0.00000  Uiso   1.00
C6804  C     0.98452   0.82073   0.25375   0.00000  Uiso   1.00
C6805  C     0.93979   0.83408   0.41860   0.00000  Uiso   1.00
C6806  C     0.94404   0.83686   0.39025   0.00000  Uiso   1.00
H6807  H     1.03946   0.77786   0.35663   0.00000  Uiso   1.00
C6808  C     0.99032   0.85810   0.22140   0.00000  Uiso   1.00
C6809  C     1.14528   0.95844   0.21918   0.00000  Uiso   1.00
N6810  N     1.00816   0.87291   0.32536   0.00000  Uiso   1.00
C6811  C     1.19073   0.87403   0.30333   0.00000  Uiso   1.00
C6812  C     1.18550   0.80241   0.40786   0.00000  Uiso   1.00
H6813  H     0.97615   0.93558   0.28382   0.00000  Uiso   1.00
O6814  O     1.05567   0.86879   0.28142   0.00000  Uiso   1.00
C6815  C     0.92782   0.85688   0.37511   0.00000  Uiso   1.00
H6816  H     0.96262   0.84273   0.29868   0.00000  Uiso   1.00
C6817  C     1.01051   0.87241   0.34913   0.00000  Uiso   1.00
O6818  O     0.92928   0.85423   0.34714   0.00000  Uiso   1.00
C6819  C     1.17230   0.86668   0.23478   0.00000  Uiso   1.00
O6820  O     0.90460   0.90105   0.37537   0.00000  Uiso   1.00
C6821  C     1.02487   0.84994   0.39194   0.00000  Uiso   1.00
C6822  C     0.89023   0.77195   0.40155   0.00000  Uiso   1.00
C6823  C     0.91457   0.87873   0.38922   0.00000  Uiso   1.00
C6824  C     1.01302   0.87191   0.37857   0.00000  Uiso   1.00
C6825  C     1.00017   0.89327   0.39251   0.00000  Uiso   1.00
C6826  C     0.99837   0.89057   0.42094   0.00000  Uiso   1.00
C6827  C     0.91101   0.87598   0.41685   0.00000  Uiso   1.00
C6828  C     1.15158   0.75883   0.31760   0.00000  Uiso   1.00
C6829  C     1.20989   0.82471   0.22899   0.00000  Uiso   1.00
C6830  C     1.01371   0.87101   0.43403   0.00000  Uiso   1.00
O6831  O     1.06879   0.91700   0.42797   0.00000  Uiso   1.00
H6832  H     1.02343   0.79472   0.29314   0.00000  Uiso   1.00
H6833  H     1.01053   0.82833   0.30640   0.00000  Uiso   1.00
H6834  H     1.14196   0.85215   0.31471   0.00000  Uiso   1.00
H6835  H     0.94842   0.76553   0.40417   0.00000  Uiso   1.00
C6836  C     1.05935   0.78539   0.43251   0.00000  Uiso   1.00
N6837  N     1.02531   0.94826   0.22188   0.00000  Uiso   1.00
H6838  H     1.13350   0.83578   0.28150   0.00000  Uiso   1.00
H6839  H     1.20963   0.77654   0.28572   0.00000  Uiso   1.00
C6840  C     1.07093   0.89628   0.31892   0.00000  Uiso   1.00
H6841  H     1.16260   0.76642   0.33431   0.00000  Uiso   1.00
C6842  C     0.90471   0.89878   0.34768   0.00000  Uiso   1.00
C6843  C     1.06850   0.92103   0.33253   0.00000  Uiso   1.00
H6844  H     0.89315   0.75055   0.26983   0.00000  Uiso   1.00
H6845  H     1.11962   0.74536   0.24823   0.00000  Uiso   1.00
O6846  O     1.16951   0.78147   0.39697   0.00000  Uiso   1.00
H6847  H     0.88533   0.95036   0.39434   0.00000  Uiso   1.00
H6848  H     0.99953   0.79723   0.32012   0.00000  Uiso   1.00
C6849  C     1.15282   0.73638   0.27465   0.00000  Uiso   1.00
C6850  C     1.09634   0.83059   0.33180   0.00000  Uiso   1.00
C6851  C     1.16000   0.77029   0.44463   0.00000  Uiso   1.00
C6852  C     1.14216   0.90980   0.22692   0.00000  Uiso   1.00
O6853  O     1.18028   0.78759   0.45516   0.00000  Uiso   1.00
O6854  O     1.09064   0.77851   0.27842   0.00000  Uiso   1.00
C6855  C     0.95011   0.94628   0.43757   0.00000  Uiso   1.00
C6856  C     1.11545   0.76692   0.28570   0.00000  Uiso   1.00
C6857  C     1.16874   0.95618   0.34193   0.00000  Uiso   1.00
N6858  N     1.10849   0.83676   0.38361   0.00000  Uiso   1.00
C6859  C     1.06313   0.73095   0.38051   0.00000  Uiso   1.00
C6860  C     0.97998   0.80769   0.28165   0.00000  Uiso   1.00
C6861  C     1.17573   0.72544   0.23100   0.00000  Uiso   1.00
C6862  C     1.12057   0.88847   0.43842   0.00000  Uiso   1.00
H6863  H     0.96396   0.95450   0.31047   0.00000  Uiso   1.00
C6864  C     0.92219   0.85345   0.43133   0.00000  Uiso   1.00
H6865  H     1.15723   0.73204   0.21933   0.00000  Uiso   1.00
C6866  C     0.97156   0.77483   0.24399   0.00000  Uiso   1.00
H6867  H     0.92681   0.87564   0.23202   0.00000  Uiso   1.00
H6868  H     0.99543   0.86177   0.26403   0.00000  Uiso   1.00
C6869  C     0.89589   0.92071   0.33176   0.00000  Uiso   1.00
C6870  C     1.19141   0.81844   0.36144   0.00000  Uiso   1.00
C6871  C     1.04976   0.93875   0.38900   0.00000  Uiso   1.00
C6872  C     0.90859   0.95562   0.27202   0.00000  Uiso   1.00
H6873  H     1.17080   0.91382   0.35659   0.00000  Uiso   1.00
C6874  C     0.92228   0.72594   0.21731   0.00000  Uiso   1.00
H6875  H     1.00787   0.75055   0.24871   0.00000  Uiso   1.00
C6876  C     1.03285   0.93710   0.30412   0.00000  Uiso   1.00
C6877  C     1.07960   0.73050   0.35451   0.00000  Uiso   1.00
H6878  H     1.12409   0.84426   0.22960   0.00000  Uiso   1.00
H6879  H     1.15472   0.91915   0.32551   0.00000  Uiso   1.00
H6880  H     0.95897   0.95170   0.35774   0.00000  Uiso   1.00
H6881  H     0.92391   0.80279   0.23069   0.00000  Uiso   1.00
H6882  H     0.90056   0.76816   0.30079   0.00000  Uiso   1.00
H6883  H     0.99956   0.95724   0.34843   0.00000  Uiso   1.00
C6884  C     0.89254   0.72363   0.39944   0.00000  Uiso   1.00
H6885  H     0.98148   0.92406   0.31664   0.00000  Uiso   1.00
H6886  H     0.93890   0.82218   0.28273   0.00000  Uiso   1.00
C6887  C     0.89325   0.91774   0.30370   0.00000  Uiso   1.00
H6888  H     1.13909   0.92936   0.35807   0.00000  Uiso   1.00
C6889  C     0.93628   0.74752   0.40969   0.00000  Uiso   1.00
C6890  C     1.08647   0.92393   0.44812   0.00000  Uiso   1.00
C6891  C     1.20891   0.84465   0.39900   0.00000  Uiso   1.00
C6892  C     0.97995   0.80175   0.23262   0.00000  Uiso   1.00
C6893  C     1.07625   0.71748   0.40555   0.00000  Uiso   1.00
H6894  H     0.93531   0.74858   0.43183   0.00000  Uiso   1.00
H6895  H     1.10875   0.86453   0.25263   0.00000  Uiso   1.00
H6896  H     1.08241   0.92421   0.34986   0.00000  Uiso   1.00
C6897  C     0.98130   0.94304   0.30413   0.00000  Uiso   1.00
H6898  H     0.92512   0.95241   0.28777   0.00000  Uiso   1.00
H6899  H     1.18096   0.94418   0.28310   0.00000  Uiso   1.00
C6900  C     1.19584   0.82122   0.38951   0.00000  Uiso   1.00
C6901  C     0.94470   0.76536   0.23235   0.00000  Uiso   1.00
C6902  C     0.91197   0.87325   0.30578   0.00000  Uiso   1.00
C6903  C     0.92211   0.78089   0.22799   0.00000  Uiso   1.00
H6904  H     0.89596   0.79121   0.39222   0.00000  Uiso   1.00
H6905  H     1.19246   0.72420   0.38355   0.00000  Uiso   1.00
C6906  C     1.12119   0.74180   0.45487   0.00000  Uiso   1.00
H6907  H     0.88825   0.94020   0.34192   0.00000  Uiso   1.00
H6908  H     0.91566   0.94858   0.25159   0.00000  Uiso   1.00
C6909  C     0.89761   0.89504   0.43240   0.00000  Uiso   1.00
C6910  C     1.21162   0.84906   0.42727   0.00000  Uiso   1.00
C6911  C     1.19754   0.95233   0.29674   0.00000  Uiso   1.00
N6912  N     1.05425   0.81504   0.23453   0.00000  Uiso   1.00
H6913  H     1.19758   0.89351   0.29570   0.00000  Uiso   1.00
C6914  C     0.99014   0.75111   0.23567   0.00000  Uiso   1.00
H6915  H     0.89222   0.85117   0.24917   0.00000  Uiso   1.00
C6916  C     0.97268   0.72574   0.23484   0.00000  Uiso   1.00
H6917  H     1.06565   0.78849   0.45411   0.00000  Uiso   1.00
H6918  H     1.07014   0.89291   0.23804   0.00000  Uiso   1.00
C6919  C     0.88377   0.93764   0.28138   0.00000  Uiso   1.00
C6920  C     0.89703   0.76936   0.21912   0.00000  Uiso   1.00
C6921  C     1.07537   0.72968   0.45619   0.00000  Uiso   1.00
C6922  C     1.19610   0.95606   0.32339   0.00000  Uiso   1.00
C6923  C     1.21182   0.74150   0.31334   0.00000  Uiso   1.00
H6924  H     1.20540   0.82263   0.27286   0.00000  Uiso   1.00
C6925  C     1.04614   0.96258   0.37526   0.00000  Uiso   1.00
H6926  H     0.94633   0.94436   0.45926   0.00000  Uiso   1.00
C6927  C     0.95734   0.95168   0.38053   0.00000  Uiso   1.00
H6928  H     0.89015   0.77439   0.42416   0.00000  Uiso   1.00
O6929  O     0.99370   0.88554   0.21701   0.00000  Uiso   1.00
C6930  C     0.96763   0.71424   0.26372   0.00000  Uiso   1.00
H6931  H     1.19097   0.74352   0.23171   0.00000  Uiso   1.00
H6932  H     0.91151   0.76810   0.35472   0.00000  Uiso   1.00
C6933  C     0.94366   0.81063   0.45990   0.00000  Uiso   1.00
C6934  C     1.00861   0.95743   0.30491   0.00000  Uiso   1.00
H6935  H     1.21067   0.72708   0.26828   0.00000  Uiso   1.00
H6936  H     0.95052   0.72483   0.27313   0.00000  Uiso   1.00
H6937  H     0.94581   0.72721   0.40293   0.00000  Uiso   1.00
C6938  C     1.01870   0.87491   0.46199   0.00000  Uiso   1.00
H6939  H     0.90340   0.71738   0.43836   0.00000  Uiso   1.00
C6940  C     1.16896   0.71564   0.25915   0.00000  Uiso   1.00
H6941  H     1.06836   0.85778   0.22615   0.00000  Uiso   1.00
C6942  C     1.07448   0.87869   0.22103   0.00000  Uiso   1.00
H6943  H     0.98592   0.71547   0.27564   0.00000  Uiso   1.00
C6944  C     1.14504   0.75370   0.46352   0.00000  Uiso   1.00
C6945  C     1.08236   0.94798   0.46318   0.00000  Uiso   1.00
H6946  H     0.99884   0.75435   0.21469   0.00000  Uiso   1.00
C6947  C     1.11640   0.90969   0.21512   0.00000  Uiso   1.00
C6948  C     1.19597   0.83255   0.61909   0.00000  Uiso   1.00
C6949  C     1.10738   0.82018   0.51407   0.00000  Uiso   1.00
H6950  H     1.00960   0.85858   0.64860   0.00000  Uiso   1.00
C6951  C     0.96787   0.91837   0.70507   0.00000  Uiso   1.00
H6952  H     0.97213   0.77814   0.46850   0.00000  Uiso   1.00
H6953  H     1.20211   0.77674   0.55671   0.00000  Uiso   1.00
C6954  C     1.11697   0.84468   0.55954   0.00000  Uiso   1.00
C6955  C     0.89236   0.95467   0.67986   0.00000  Uiso   1.00
N6956  N     1.02481   0.87709   0.48489   0.00000  Uiso   1.00
C6957  C     0.92945   0.87696   0.52721   0.00000  Uiso   1.00
C6958  C     0.94172   0.89907   0.54530   0.00000  Uiso   1.00
H6959  H     0.97778   0.87227   0.54159   0.00000  Uiso   1.00
H6960  H     1.10038   0.75852   0.50473   0.00000  Uiso   1.00
C6961  C     0.97228   0.89221   0.55000   0.00000  Uiso   1.00
C6962  C     0.91254   0.79384   0.55629   0.00000  Uiso   1.00
C6963  C     0.95410   0.78989   0.47599   0.00000  Uiso   1.00
O6964  O     1.11231   0.73892   0.61706   0.00000  Uiso   1.00
C6965  C     0.96673   0.72110   0.62080   0.00000  Uiso   1.00
H6966  H     0.98536   0.90668   0.53857   0.00000  Uiso   1.00
C6967  C     1.10093   0.72513   0.47275   0.00000  Uiso   1.00
C6968  C     0.89316   0.88719   0.60575   0.00000  Uiso   1.00
C6969  C     1.12210   0.94205   0.49106   0.00000  Uiso   1.00
C6970  C     0.93728   0.92688   0.53041   0.00000  Uiso   1.00
O6971  O     0.89811   0.91372   0.70490   0.00000  Uiso   1.00
C6972  C     0.99040   0.73464   0.50246   0.00000  Uiso   1.00
H6973  H     0.93250   0.85664   0.53624   0.00000  Uiso   1.00
H6974  H     1.19919   0.72765   0.66584   0.00000  Uiso   1.00
C6975  C     0.95768   0.76833   0.63314   0.00000  Uiso   1.00
H6976  H     1.02011   0.74847   0.56202   0.00000  Uiso   1.00
C6977  C     1.01486   0.73642   0.54446   0.00000  Uiso   1.00
H6978  H     1.11744   0.72909   0.51508   0.00000  Uiso   1.00
H6979  H     1.09917   0.94763   0.64133   0.00000  Uiso   1.00
C6980  C     1.00624   0.94939   0.69441   0.00000  Uiso   1.00
H6981  H     1.12716   0.87167   0.61275   0.00000  Uiso   1.00
C6982  C     1.01205   0.73777   0.70373   0.00000  Uiso   1.00
H6983  H     1.05512   0.89235   0.63131   0.00000  Uiso   1.00
O6984  O     1.07624   0.72722   0.57187   0.00000  Uiso   1.00
N6985  N     1.12330   0.93688   0.68903   0.00000  Uiso   1.00
H6986  H     1.03327   0.72879   0.53560   0.00000  Uiso   1.00
H6987  H     1.10806   0.83943   0.50276   0.00000  Uiso   1.00
C6988  C     0.98008   0.94744   0.71090   0.00000  Uiso   1.00
H6989  H     0.90364   0.78634   0.57576   0.00000  Uiso   1.00
C6990  C     1.12028   0.80264   0.57912   0.00000  Uiso   1.00
C6991  C     1.00330   0.75212   0.63148   0.00000  Uiso   1.00
H6992  H     1.09393   0.80794   0.50067   0.00000  Uiso   1.00
C6993  C     1.11245   0.93456   0.62931   0.00000  Uiso   1.00
C6994  C     0.94914   0.75493   0.51650   0.00000  Uiso   1.00
H6995  H     0.93439   0.79444   0.55949   0.00000  Uiso   1.00
H6996  H     1.05613   0.83062   0.52603   0.00000  Uiso   1.00
C6997  C     0.88593   0.93872   0.70203   0.00000  Uiso   1.00
H6998  H     0.93027   0.94170   0.54647   0.00000  Uiso   1.00
C6999  C     0.94766   0.74236   0.62418   0.00000  Uiso   1.00
H7000  H     1.04423   0.86110   0.61866   0.00000  Uiso   1.00
N7001  N     0.92157   0.80540   0.63786   0.00000  Uiso   1.00
H7002  H     1.06957   0.77194   0.54149   0.00000  Uiso   1.00
H7003  H     1.12624   0.85965   0.54522   0.00000  Uiso   1.00
C7004  C     0.92836   0.89538   0.57287   0.00000  Uiso   1.00
C7005  C     1.20723   0.93650   0.53815   0.00000  Uiso   1.00
H7006  H     1.01451   0.86731   0.57465   0.00000  Uiso   1.00
H7007  H     1.17340   0.77302   0.57995   0.00000  Uiso   1.00
C7008  C     1.00880   0.71910   0.48742   0.00000  Uiso   1.00
H7009  H     1.19974   0.93236   0.63104   0.00000  Uiso   1.00
C7010  C     0.97683   0.89138   0.58134   0.00000  Uiso   1.00
C7011  C     0.99959   0.87254   0.59225   0.00000  Uiso   1.00
H7012  H     0.99016   0.85320   0.59722   0.00000  Uiso   1.00
H7013  H     1.05172   0.88645   0.59568   0.00000  Uiso   1.00
H7014  H     0.91937   0.73884   0.54672   0.00000  Uiso   1.00
C7015  C     0.94708   0.88672   0.59185   0.00000  Uiso   1.00
C7016  C     1.04363   0.88295   0.61545   0.00000  Uiso   1.00
C7017  C     1.01343   0.88913   0.61603   0.00000  Uiso   1.00
C7018  C     1.12027   0.94638   0.60123   0.00000  Uiso   1.00
H7019  H     1.10600   0.85666   0.57502   0.00000  Uiso   1.00
H7020  H     1.02284   0.92830   0.56143   0.00000  Uiso   1.00
H7021  H     1.13692   0.78372   0.61647   0.00000  Uiso   1.00
C7022  C     1.00648   0.91971   0.61128   0.00000  Uiso   1.00
C7023  C     0.98771   0.92049   0.59047   0.00000  Uiso   1.00
C7024  C     0.93921   0.87653   0.61751   0.00000  Uiso   1.00
H7025  H     0.95483   0.87189   0.63274   0.00000  Uiso   1.00
H7026  H     1.12980   0.93399   0.64447   0.00000  Uiso   1.00
C7027  C     1.17954   0.82962   0.59754   0.00000  Uiso   1.00
H7028  H     0.90732   0.88028   0.52567   0.00000  Uiso   1.00
C7029  C     1.17145   0.91759   0.49796   0.00000  Uiso   1.00
H7030  H     0.96342   0.74756   0.55488   0.00000  Uiso   1.00
C7031  C     1.20727   0.86820   0.70981   0.00000  Uiso   1.00
C7032  C     1.01555   0.94329   0.62302   0.00000  Uiso   1.00
H7033  H     1.14980   0.75349   0.48519   0.00000  Uiso   1.00
H7034  H     1.12231   0.77477   0.66168   0.00000  Uiso   1.00
H7035  H     1.13565   0.93200   0.56268   0.00000  Uiso   1.00
H7036  H     1.00458   0.95914   0.67536   0.00000  Uiso   1.00
H7037  H     0.98483   0.88523   0.65119   0.00000  Uiso   1.00
C7038  C     0.92196   0.82531   0.47097   0.00000  Uiso   1.00
C7039  C     1.13828   0.82701   0.57366   0.00000  Uiso   1.00
C7040  C     0.88769   0.84107   0.69564   0.00000  Uiso   1.00
H7041  H     1.19890   0.92197   0.58830   0.00000  Uiso   1.00
C7042  C     1.01547   0.77785   0.51729   0.00000  Uiso   1.00
C7043  C     1.04002   0.77660   0.64929   0.00000  Uiso   1.00
C7044  C     1.19441   0.86855   0.68440   0.00000  Uiso   1.00
C7045  C     1.09896   0.79989   0.55976   0.00000  Uiso   1.00
O7046  O     1.20266   0.84885   0.66524   0.00000  Uiso   1.00
H7047  H     1.20651   0.78192   0.59410   0.00000  Uiso   1.00
H7048  H     1.01835   0.88960   0.66211   0.00000  Uiso   1.00
C7049  C     1.15244   0.83930   0.59810   0.00000  Uiso   1.00
H7050  H     1.05830   0.83858   0.56082   0.00000  Uiso   1.00
C7051  C     0.91754   0.79263   0.50702   0.00000  Uiso   1.00
C7052  C     0.90952   0.81601   0.49632   0.00000  Uiso   1.00
C7053  C     0.94191   0.78063   0.49999   0.00000  Uiso   1.00
C7054  C     0.97004   0.75964   0.53750   0.00000  Uiso   1.00
C7055  C     1.08553   0.77531   0.55730   0.00000  Uiso   1.00
O7056  O     1.13785   0.94972   0.51319   0.00000  Uiso   1.00
C7057  C     0.90150   0.89825   0.58086   0.00000  Uiso   1.00
H7058  H     0.92323   0.92628   0.51326   0.00000  Uiso   1.00
C7059  C     0.91941   0.74999   0.52816   0.00000  Uiso   1.00
H7060  H     1.07725   0.91787   0.57571   0.00000  Uiso   1.00
C7061  C     0.93808   0.78898   0.63654   0.00000  Uiso   1.00
C7062  C     1.05483   0.95129   0.55738   0.00000  Uiso   1.00
C7063  C     1.00623   0.88035   0.64561   0.00000  Uiso   1.00
C7064  C     1.13485   0.92577   0.58389   0.00000  Uiso   1.00
O7065  O     0.91956   0.73929   0.61670   0.00000  Uiso   1.00
C7066  C     1.06982   0.83937   0.54187   0.00000  Uiso   1.00
H7067  H     1.10850   0.83851   0.69632   0.00000  Uiso   1.00
C7068  C     1.08927   0.75361   0.57628   0.00000  Uiso   1.00
H7069  H     0.90527   0.81505   0.55503   0.00000  Uiso   1.00
H7070  H     1.07078   0.86080   0.53889   0.00000  Uiso   1.00
C7071  C     1.14137   0.92210   0.69438   0.00000  Uiso   1.00
C7072  C     1.16360   0.86579   0.63748   0.00000  Uiso   1.00
C7073  C     1.18619   0.81458   0.57124   0.00000  Uiso   1.00
C7074  C     1.14610   0.85899   0.61653   0.00000  Uiso   1.00
C7075  C     1.09749   0.82624   0.54279   0.00000  Uiso   1.00
C7076  C     0.98511   0.77396   0.63771   0.00000  Uiso   1.00
H7077  H     1.12705   0.80978   0.51518   0.00000  Uiso   1.00
C7078  C     1.10237   0.79596   0.69375   0.00000  Uiso   1.00
H7079  H     1.11041   0.75392   0.69923   0.00000  Uiso   1.00
C7080  C     1.05824   0.81509   0.68778   0.00000  Uiso   1.00
O7081  O     0.90446   0.86250   0.64728   0.00000  Uiso   1.00
C7082  C     0.90499   0.77757   0.53016   0.00000  Uiso   1.00
H7083  H     1.07970   0.75867   0.65477   0.00000  Uiso   1.00
C7084  C     1.02263   0.79720   0.65797   0.00000  Uiso   1.00
H7085  H     0.96845   0.78229   0.54323   0.00000  Uiso   1.00
O7086  O     0.99530   0.79798   0.64854   0.00000  Uiso   1.00
C7087  C     0.99848   0.75337   0.52588   0.00000  Uiso   1.00
H7088  H     1.03195   0.94320   0.63892   0.00000  Uiso   1.00
O7089  O     1.03192   0.75594   0.63317   0.00000  Uiso   1.00
H7090  H     1.15785   0.80310   0.54101   0.00000  Uiso   1.00
H7091  H     1.12300   0.90590   0.58412   0.00000  Uiso   1.00
C7092  C     1.10005   0.73607   0.50211   0.00000  Uiso   1.00
O7093  O     1.15656   0.88493   0.65652   0.00000  Uiso   1.00
N7094  N     1.19571   0.84322   0.49530   0.00000  Uiso   1.00
H7095  H     1.07652   0.88202   0.68745   0.00000  Uiso   1.00
C7096  C     1.12250   0.78185   0.59876   0.00000  Uiso   1.00
C7097  C     1.16274   0.93934   0.51586   0.00000  Uiso   1.00
H7098  H     0.96214   0.91412   0.68405   0.00000  Uiso   1.00
H7099  H     0.93555   0.88078   0.50720   0.00000  Uiso   1.00
H7100  H     1.15341   0.91999   0.59262   0.00000  Uiso   1.00
C7101  C     1.17166   0.88573   0.68010   0.00000  Uiso   1.00
C7102  C     1.12609   0.79411   0.67319   0.00000  Uiso   1.00
H7103  H     1.01902   0.83122   0.68956   0.00000  Uiso   1.00
C7104  C     0.91225   0.87382   0.62233   0.00000  Uiso   1.00
H7105  H     1.08142   0.72955   0.51348   0.00000  Uiso   1.00
O7106  O     1.15362   0.90568   0.47717   0.00000  Uiso   1.00
C7107  C     1.10839   0.75812   0.59738   0.00000  Uiso   1.00
H7108  H     0.89074   0.82699   0.50222   0.00000  Uiso   1.00
H7109  H     1.01815   0.79204   0.53681   0.00000  Uiso   1.00
H7110  H     1.03498   0.77185   0.51071   0.00000  Uiso   1.00
C7111  C     0.95109   0.71621   0.47856   0.00000  Uiso   1.00
N7112  N     0.92866   0.93818   0.64760   0.00000  Uiso   1.00
H7113  H     1.00612   0.79000   0.50084   0.00000  Uiso   1.00
C7114  C     0.97908   0.94645   0.58149   0.00000  Uiso   1.00
H7115  H     0.95467   0.93645   0.51991   0.00000  Uiso   1.00
C7116  C     0.91249   0.94613   0.66182   0.00000  Uiso   1.00
C7117  C     1.09538   0.95509   0.58553   0.00000  Uiso   1.00
C7118  C     1.18880   0.85056   0.64037   0.00000  Uiso   1.00
H7119  H     0.96481   0.94851   0.56606   0.00000  Uiso   1.00
C7120  C     1.06611   0.77563   0.65973   0.00000  Uiso   1.00
C7121  C     1.03113   0.81686   0.67643   0.00000  Uiso   1.00
C7122  C     1.19815   0.90870   0.49938   0.00000  Uiso   1.00
C7123  C     0.96192   0.73304   0.49782   0.00000  Uiso   1.00
O7124  O     1.03605   0.93250   0.54809   0.00000  Uiso   1.00
H7125  H     1.14500   0.79367   0.68236   0.00000  Uiso   1.00
O7126  O     1.06546   0.93118   0.71113   0.00000  Uiso   1.00
C7127  C     0.99386   0.72593   0.62359   0.00000  Uiso   1.00
H7128  H     0.98285   0.90312   0.71150   0.00000  Uiso   1.00
C7129  C     1.07551   0.94004   0.57289   0.00000  Uiso   1.00
H7130  H     1.01771   0.92951   0.69246   0.00000  Uiso   1.00
H7131  H     0.90816   0.73880   0.51156   0.00000  Uiso   1.00
C7132  C     1.06982   0.82760   0.71369   0.00000  Uiso   1.00
H7133  H     0.88549   0.90894   0.56722   0.00000  Uiso   1.00
C7134  C     1.16250   0.82031   0.55388   0.00000  Uiso   1.00
C7135  C     1.07546   0.79526   0.67735   0.00000  Uiso   1.00
H7136  H     1.20406   0.89057   0.48629   0.00000  Uiso   1.00
H7137  H     1.12422   0.81253   0.66108   0.00000  Uiso   1.00
H7138  H     1.16785   0.83866   0.54200   0.00000  Uiso   1.00
C7139  C     1.16415   0.90464   0.69930   0.00000  Uiso   1.00
N7140  N     0.90220   0.82668   0.70686   0.00000  Uiso   1.00
C7141  C     1.18181   0.94969   0.53499   0.00000  Uiso   1.00
H7142  H     1.06294   0.74565   0.46626   0.00000  Uiso   1.00
C7143  C     1.12866   0.92024   0.47461   0.00000  Uiso   1.00
C7144  C     1.19265   0.78470   0.57597   0.00000  Uiso   1.00
H7145  H     1.10016   0.91553   0.62914   0.00000  Uiso   1.00
C7146  C     1.10091   0.76954   0.71066   0.00000  Uiso   1.00
H7147  H     1.02088   0.96231   0.70592   0.00000  Uiso   1.00
C7148  C     1.09894   0.95660   0.48431   0.00000  Uiso   1.00
C7149  C     1.06985   0.88194   0.70987   0.00000  Uiso   1.00
H7150  H     1.20867   0.84895   0.55207   0.00000  Uiso   1.00
C7151  C     1.19892   0.83627   0.47235   0.00000  Uiso   1.00
C7152  C     1.21199   0.82942   0.56115   0.00000  Uiso   1.00
C7153  C     1.10067   0.82219   0.70930   0.00000  Uiso   1.00
H7154  H     1.00478   0.71905   0.55125   0.00000  Uiso   1.00
H7155  H     1.03058   0.72134   0.49140   0.00000  Uiso   1.00
N7156  N     1.01293   0.75984   0.71059   0.00000  Uiso   1.00
H7157  H     1.17603   0.96197   0.55322   0.00000  Uiso   1.00
H7158  H     0.93935   0.96307   0.70901   0.00000  Uiso   1.00
H7159  H     1.07953   0.76279   0.71234   0.00000  Uiso   1.00
C7160  C     1.21102   0.75476   0.76038   0.00000  Uiso   1.00
N7161  N     1.18948   0.73563   0.93794   0.00000  Uiso   1.00
H7162  H     0.92914   0.87661   0.72008   0.00000  Uiso   1.00
C7163  C     1.02034   0.85467   0.93004   0.00000  Uiso   1.00
H7164  H     0.93201   0.84937   0.88717   0.00000  Uiso   1.00
H7165  H     1.21366   0.87392   0.86080   0.00000  Uiso   1.00
C7166  C     0.91640   0.71390   0.71960   0.00000  Uiso   1.00
H7167  H     1.21259   0.86851   0.80598   0.00000  Uiso   1.00
C7168  C     1.11447   0.84853   0.94816   0.00000  Uiso   1.00
C7169  C     0.89700   0.90319   0.73194   0.00000  Uiso   1.00
C7170  C     1.09532   0.79870   0.88709   0.00000  Uiso   1.00
H7171  H     0.94843   0.84569   0.81781   0.00000  Uiso   1.00
C7172  C     1.05735   0.82721   0.76171   0.00000  Uiso   1.00
O7173  O     1.10043   0.81547   0.90849   0.00000  Uiso   1.00
C7174  C     1.17852   0.83669   0.86384   0.00000  Uiso   1.00
H7175  H     1.11058   0.76951   0.73212   0.00000  Uiso   1.00
C7176  C     0.91512   0.88141   0.73775   0.00000  Uiso   1.00
C7177  C     0.94024   0.85934   0.80188   0.00000  Uiso   1.00
H7178  H     0.92042   0.73468   0.72632   0.00000  Uiso   1.00
H7179  H     0.95339   0.87688   0.79854   0.00000  Uiso   1.00
C7180  C     0.91657   0.90626   0.87815   0.00000  Uiso   1.00
C7181  C     1.10023   0.71700   0.83485   0.00000  Uiso   1.00
C7182  C     1.17753   0.80891   0.85807   0.00000  Uiso   1.00
C7183  C     1.19755   0.89847   0.77741   0.00000  Uiso   1.00
H7184  H     1.10112   0.83690   0.76976   0.00000  Uiso   1.00
C7185  C     0.92544   0.92126   0.82343   0.00000  Uiso   1.00
C7186  C     0.92441   0.93213   0.87180   0.00000  Uiso   1.00
H7187  H     1.14791   0.94397   0.78560   0.00000  Uiso   1.00
C7188  C     0.91240   0.87114   0.81112   0.00000  Uiso   1.00
C7189  C     1.08769   0.89967   0.89782   0.00000  Uiso   1.00
C7190  C     1.03216   0.82544   0.77728   0.00000  Uiso   1.00
C7191  C     1.16823   0.85376   0.90923   0.00000  Uiso   1.00
H7192  H     1.02438   0.80467   0.77830   0.00000  Uiso   1.00
H7193  H     1.15480   0.95731   0.87715   0.00000  Uiso   1.00
C7194  C     1.05907   0.76110   0.96010   0.00000  Uiso   1.00
H7195  H     0.97332   0.82728   0.76008   0.00000  Uiso   1.00
H7196  H     1.08923   0.73147   0.77955   0.00000  Uiso   1.00
C7197  C     0.91169   0.88752   0.85700   0.00000  Uiso   1.00
C7198  C     1.18743   0.72215   0.86523   0.00000  Uiso   1.00
C7199  C     1.09364   0.94322   0.91468   0.00000  Uiso   1.00
H7200  H     1.06063   0.79040   0.73960   0.00000  Uiso   1.00
O7201  O     1.21043   0.88548   0.75507   0.00000  Uiso   1.00
C7202  C     1.06581   0.85748   0.72375   0.00000  Uiso   1.00
O7203  O     0.92619   0.95044   0.89311   0.00000  Uiso   1.00
C7204  C     1.00214   0.91905   0.83055   0.00000  Uiso   1.00
C7205  C     1.06547   0.90637   0.72427   0.00000  Uiso   1.00
C7206  C     0.99880   0.93492   0.78626   0.00000  Uiso   1.00
O7207  O     1.00246   0.91208   0.80298   0.00000  Uiso   1.00
O7208  O     1.11091   0.90605   0.94318   0.00000  Uiso   1.00
C7209  C     1.00501   0.94940   0.86965   0.00000  Uiso   1.00
C7210  C     1.19920   0.88748   0.80358   0.00000  Uiso   1.00
C7211  C     1.00265   0.89611   0.84832   0.00000  Uiso   1.00
C7212  C     0.99961   0.87026   0.83720   0.00000  Uiso   1.00
C7213  C     1.08140   0.73915   0.82338   0.00000  Uiso   1.00
C7214  C     1.10020   0.75369   0.86610   0.00000  Uiso   1.00
C7215  C     1.10504   0.77233   0.88727   0.00000  Uiso   1.00
C7216  C     1.10427   0.86026   0.92466   0.00000  Uiso   1.00
C7217  C     0.99937   0.93095   0.75803   0.00000  Uiso   1.00
H7218  H     1.05330   0.81325   0.94540   0.00000  Uiso   1.00
C7219  C     1.06948   0.95345   0.72755   0.00000  Uiso   1.00
C7220  C     1.05960   0.85728   0.75182   0.00000  Uiso   1.00
H7221  H     0.90171   0.81985   0.78786   0.00000  Uiso   1.00
C7222  C     1.13947   0.71758   0.86815   0.00000  Uiso   1.00
C7223  C     1.11225   0.95267   0.95953   0.00000  Uiso   1.00
O7224  O     1.07773   0.83528   0.85896   0.00000  Uiso   1.00
H7225  H     1.11076   0.92235   0.82833   0.00000  Uiso   1.00
C7226  C     1.05265   0.72786   0.82371   0.00000  Uiso   1.00
C7227  C     1.19758   0.75153   0.78469   0.00000  Uiso   1.00
C7228  C     1.17617   0.90428   0.72505   0.00000  Uiso   1.00
H7229  H     1.11181   0.94145   0.85915   0.00000  Uiso   1.00
C7230  C     0.90017   0.86035   0.85726   0.00000  Uiso   1.00
C7231  C     1.18513   0.89815   0.82481   0.00000  Uiso   1.00
O7232  O     1.16625   0.92154   0.74568   0.00000  Uiso   1.00
H7233  H     0.93444   0.80597   0.78663   0.00000  Uiso   1.00
N7234  N     0.99817   0.84817   0.82935   0.00000  Uiso   1.00
C7235  C     1.05738   0.88094   0.76566   0.00000  Uiso   1.00
C7236  C     1.08989   0.74788   0.79578   0.00000  Uiso   1.00
C7237  C     1.08428   0.85336   0.88028   0.00000  Uiso   1.00
C7238  C     1.08555   0.76232   0.84323   0.00000  Uiso   1.00
C7239  C     0.91692   0.87033   0.76297   0.00000  Uiso   1.00
C7240  C     1.19664   0.87873   0.87399   0.00000  Uiso   1.00
C7241  C     1.05529   0.81134   0.73579   0.00000  Uiso   1.00
H7242  H     1.14909   0.90524   0.88313   0.00000  Uiso   1.00
C7243  C     0.90081   0.88167   0.78426   0.00000  Uiso   1.00
C7244  C     1.00807   0.92694   0.88585   0.00000  Uiso   1.00
C7245  C     1.01609   0.90321   0.92934   0.00000  Uiso   1.00
C7246  C     0.91793   0.89508   0.83032   0.00000  Uiso   1.00
O7247  O     1.01105   0.92897   0.91547   0.00000  Uiso   1.00
C7248  C     1.01253   0.87824   0.91634   0.00000  Uiso   1.00
H7249  H     1.01415   0.83681   0.91883   0.00000  Uiso   1.00
C7250  C     1.00535   0.90016   0.87534   0.00000  Uiso   1.00
O7251  O     1.00681   0.87615   0.88955   0.00000  Uiso   1.00
C7252  C     1.08300   0.80793   0.86338   0.00000  Uiso   1.00
H7253  H     0.94932   0.91469   0.71829   0.00000  Uiso   1.00
C7254  C     0.98778   0.95149   0.74049   0.00000  Uiso   1.00
C7255  C     1.19003   0.85200   0.88768   0.00000  Uiso   1.00
H7256  H     1.00636   0.91023   0.75203   0.00000  Uiso   1.00
H7257  H     0.91471   0.81400   0.75540   0.00000  Uiso   1.00
H7258  H     1.03400   0.83356   0.79821   0.00000  Uiso   1.00
C7259  C     1.15075   0.92678   0.84463   0.00000  Uiso   1.00
H7260  H     1.20401   0.89705   0.88505   0.00000  Uiso   1.00
H7261  H     1.18755   0.79533   0.87222   0.00000  Uiso   1.00
C7262  C     1.10016   0.88827   0.92201   0.00000  Uiso   1.00
H7263  H     1.15712   0.75595   0.86371   0.00000  Uiso   1.00
C7264  C     1.07766   0.78955   0.84231   0.00000  Uiso   1.00
H7265  H     1.03305   0.81177   0.73024   0.00000  Uiso   1.00
O7266  O     1.20977   0.73864   0.86504   0.00000  Uiso   1.00
C7267  C     1.10904   0.72492   0.86436   0.00000  Uiso   1.00
C7268  C     1.15601   0.84604   0.82052   0.00000  Uiso   1.00
H7269  H     1.16747   0.83608   0.92425   0.00000  Uiso   1.00
H7270  H     1.12079   0.95663   0.82775   0.00000  Uiso   1.00
H7271  H     1.04551   0.71953   0.84343   0.00000  Uiso   1.00
C7272  C     1.16251   0.92957   0.79316   0.00000  Uiso   1.00
C7273  C     1.09594   0.84302   0.90420   0.00000  Uiso   1.00
H7274  H     1.01585   0.83750   0.76756   0.00000  Uiso   1.00
C7275  C     0.92913   0.94047   0.84319   0.00000  Uiso   1.00
C7276  C     0.99277   0.96135   0.79604   0.00000  Uiso   1.00
C7277  C     0.92020   0.83985   0.86969   0.00000  Uiso   1.00
C7278  C     1.16774   0.85461   0.84565   0.00000  Uiso   1.00
H7279  H     1.17217   0.87100   0.92249   0.00000  Uiso   1.00
H7280  H     0.89190   0.83120   0.82432   0.00000  Uiso   1.00
H7281  H     1.11491   0.76549   0.90520   0.00000  Uiso   1.00
C7282  C     1.07017   0.89169   0.85283   0.00000  Uiso   1.00
C7283  C     0.93411   0.84723   0.77371   0.00000  Uiso   1.00
O7284  O     1.08254   0.92702   0.89544   0.00000  Uiso   1.00
C7285  C     0.89136   0.85352   0.82770   0.00000  Uiso   1.00
C7286  C     0.99969   0.94627   0.84259   0.00000  Uiso   1.00
O7287  O     1.17503   0.77341   0.82196   0.00000  Uiso   1.00
H7288  H     1.14958   0.86100   0.80432   0.00000  Uiso   1.00
H7289  H     1.18722   0.94590   0.86528   0.00000  Uiso   1.00
H7290  H     0.93169   0.92476   0.80267   0.00000  Uiso   1.00
H7291  H     1.05072   0.88112   0.78724   0.00000  Uiso   1.00
C7292  C     0.96001   0.84511   0.75532   0.00000  Uiso   1.00
N7293  N     1.06100   0.89907   0.83229   0.00000  Uiso   1.00
H7294  H     0.90791   0.82215   0.87847   0.00000  Uiso   1.00
C7295  C     1.06046   0.90612   0.75302   0.00000  Uiso   1.00
H7296  H     1.03761   0.74299   0.81624   0.00000  Uiso   1.00
C7297  C     1.14972   0.89986   0.86088   0.00000  Uiso   1.00
H7298  H     0.97223   0.86331   0.75616   0.00000  Uiso   1.00
H7299  H     0.93500   0.83159   0.85626   0.00000  Uiso   1.00
C7300  C     1.06577   0.95322   0.75572   0.00000  Uiso   1.00
C7301  C     1.08172   0.88112   0.87650   0.00000  Uiso   1.00
C7302  C     1.20360   0.77612   0.74275   0.00000  Uiso   1.00
H7303  H     1.10919   0.75769   0.79236   0.00000  Uiso   1.00
C7304  C     0.92073   0.82023   0.77669   0.00000  Uiso   1.00
O7305  O     1.06020   0.92949   0.77032   0.00000  Uiso   1.00
H7306  H     1.13017   0.89172   0.85571   0.00000  Uiso   1.00
C7307  C     1.17014   0.79994   0.83278   0.00000  Uiso   1.00
H7308  H     1.14803   0.85787   0.90149   0.00000  Uiso   1.00
H7309  H     1.07330   0.76198   0.78905   0.00000  Uiso   1.00
H7310  H     1.04814   0.75882   0.94007   0.00000  Uiso   1.00
C7311  C     1.17582   0.91657   0.77171   0.00000  Uiso   1.00
C7312  C     1.08365   0.82437   0.77825   0.00000  Uiso   1.00
C7313  C     1.18278   0.79442   0.75108   0.00000  Uiso   1.00
O7314  O     1.15524   0.81351   0.78656   0.00000  Uiso   1.00
C7315  C     1.17135   0.79193   0.77710   0.00000  Uiso   1.00
C7316  C     1.16171   0.73404   0.86409   0.00000  Uiso   1.00
C7317  C     1.17118   0.81246   0.73208   0.00000  Uiso   1.00
C7318  C     1.16721   0.92093   0.81898   0.00000  Uiso   1.00
H7319  H     1.06607   0.79621   0.82272   0.00000  Uiso   1.00
C7320  C     1.17567   0.88415   0.85138   0.00000  Uiso   1.00
C7321  C     1.18169   0.77236   0.79490   0.00000  Uiso   1.00
H7322  H     1.09082   0.80313   0.78064   0.00000  Uiso   1.00
H7323  H     1.08216   0.83605   0.79800   0.00000  Uiso   1.00
H7324  H     1.11408   0.82322   0.72847   0.00000  Uiso   1.00
C7325  C     1.15999   0.81963   0.81357   0.00000  Uiso   1.00
C7326  C     1.02657   0.90344   0.95629   0.00000  Uiso   1.00
H7327  H     0.95477   0.84043   0.73354   0.00000  Uiso   1.00
H7328  H     1.08161   0.76309   0.95590   0.00000  Uiso   1.00
C7329  C     0.88249   0.90335   0.77777   0.00000  Uiso   1.00
C7330  C     1.19810   0.88651   0.73038   0.00000  Uiso   1.00
H7331  H     0.90875   0.90189   0.90050   0.00000  Uiso   1.00
C7332  C     1.21149   0.72675   0.93529   0.00000  Uiso   1.00
C7333  C     1.20263   0.72691   0.80005   0.00000  Uiso   1.00
C7334  C     1.10614   0.93446   0.93830   0.00000  Uiso   1.00
C7335  C     1.12245   0.93791   0.84020   0.00000  Uiso   1.00
N7336  N     1.16030   0.82692   0.71595   0.00000  Uiso   1.00
C7337  C     1.16550   0.94995   0.85975   0.00000  Uiso   1.00
C7338  C     1.02764   0.85447   0.95705   0.00000  Uiso   1.00
H7339  H     0.89448   0.93717   0.96329   0.00000  Uiso   1.00
C7340  C     1.11541   0.77474   1.04302   0.00000  Uiso   1.00
H7341  H     1.06050   0.75922   1.01439   0.00000  Uiso   1.00
C7342  C     1.15843   0.80267   1.13121   0.00000  Uiso   1.00
C7343  C     1.15689   0.87694   1.06488   0.00000  Uiso   1.00
C7344  C     0.91838   0.88528   1.00990   0.00000  Uiso   1.00
C7345  C     1.03264   0.76436   1.17111   0.00000  Uiso   1.00
C7346  C     0.96035   0.90463   1.09522   0.00000  Uiso   1.00
O7347  O     1.13128   0.73798   1.15884   0.00000  Uiso   1.00
C7348  C     1.10485   0.93315   1.20561   0.00000  Uiso   1.00
C7349  C     0.95001   0.86104   1.08606   0.00000  Uiso   1.00
C7350  C     1.11154   0.92200   1.10115   0.00000  Uiso   1.00
C7351  C     0.94503   0.80811   1.10825   0.00000  Uiso   1.00
C7352  C     1.11160   0.74815   1.05306   0.00000  Uiso   1.00
H7353  H     0.97681   0.79788   1.18833   0.00000  Uiso   1.00
C7354  C     0.97306   0.77050   1.11262   0.00000  Uiso   1.00
O7355  O     0.94713   0.78168   1.12008   0.00000  Uiso   1.00
C7356  C     0.88271   0.74352   1.03896   0.00000  Uiso   1.00
O7357  O     0.95701   0.88602   1.07481   0.00000  Uiso   1.00
C7358  C     1.15873   0.93611   1.09917   0.00000  Uiso   1.00
C7359  C     0.95585   0.81264   1.08134   0.00000  Uiso   1.00
O7360  O     0.96843   0.79175   1.06750   0.00000  Uiso   1.00
C7361  C     0.93845   0.83101   1.12380   0.00000  Uiso   1.00
C7362  C     1.04242   0.87604   0.99831   0.00000  Uiso   1.00
C7363  C     1.17787   0.90849   1.03607   0.00000  Uiso   1.00
H7364  H     1.08429   0.75051   1.14162   0.00000  Uiso   1.00
H7365  H     0.89036   0.75044   1.10538   0.00000  Uiso   1.00
C7366  C     1.07081   0.88796   1.00145   0.00000  Uiso   1.00
C7367  C     0.98447   0.77789   1.08615   0.00000  Uiso   1.00
C7368  C     1.01174   0.77104   1.08050   0.00000  Uiso   1.00
H7369  H     1.02091   0.77803   1.06196   0.00000  Uiso   1.00
H7370  H     1.13654   0.93769   1.04487   0.00000  Uiso   1.00
H7371  H     1.15328   0.86937   1.00381   0.00000  Uiso   1.00
C7372  C     0.95078   0.90281   1.12278   0.00000  Uiso   1.00
H7373  H     1.02032   0.95819   1.06445   0.00000  Uiso   1.00
C7374  C     0.92787   0.87674   0.98588   0.00000  Uiso   1.00
H7375  H     1.06956   0.90878   0.99273   0.00000  Uiso   1.00
C7376  C     1.08807   0.90663   1.09971   0.00000  Uiso   1.00
H7377  H     1.04357   0.75799   1.18812   0.00000  Uiso   1.00
H7378  H     1.08089   0.78642   1.00247   0.00000  Uiso   1.00
H7379  H     1.10758   0.83896   1.09196   0.00000  Uiso   1.00
H7380  H     0.95101   0.73747   0.98937   0.00000  Uiso   1.00
C7381  C     1.13338   0.91755   1.05505   0.00000  Uiso   1.00
C7382  C     1.08561   0.79021   1.07975   0.00000  Uiso   1.00
C7383  C     0.98071   0.81151   1.20664   0.00000  Uiso   1.00
C7384  C     1.14512   0.87224   1.11284   0.00000  Uiso   1.00
H7385  H     1.07567   0.88676   1.02360   0.00000  Uiso   1.00
H7386  H     1.08491   0.87456   0.99045   0.00000  Uiso   1.00
C7387  C     1.02856   0.89655   1.13917   0.00000  Uiso   1.00
C7388  C     1.18129   0.79480   0.99587   0.00000  Uiso   1.00
C7389  C     1.02038   0.91222   1.18413   0.00000  Uiso   1.00
O7390  O     1.04742   0.93965   1.15495   0.00000  Uiso   1.00
C7391  C     1.05992   0.77973   1.00572   0.00000  Uiso   1.00
H7392  H     1.10374   0.81749   1.05122   0.00000  Uiso   1.00
H7393  H     1.08726   0.89014   1.08370   0.00000  Uiso   1.00
C7394  C     1.05404   0.82867   1.07688   0.00000  Uiso   1.00
C7395  C     1.14708   0.88707   1.08905   0.00000  Uiso   1.00
H7396  H     1.03537   0.81916   1.06718   0.00000  Uiso   1.00
H7397  H     1.06447   0.83630   1.05978   0.00000  Uiso   1.00
C7398  C     1.15292   0.76069   1.01838   0.00000  Uiso   1.00
C7399  C     1.20188   0.84125   1.20652   0.00000  Uiso   1.00
H7400  H     1.04104   0.80614   1.12349   0.00000  Uiso   1.00
C7401  C     1.05763   0.76594   1.10835   0.00000  Uiso   1.00
C7402  C     1.07293   0.81260   1.09573   0.00000  Uiso   1.00
C7403  C     0.90307   0.86686   1.02530   0.00000  Uiso   1.00
C7404  C     1.02658   0.76228   1.10269   0.00000  Uiso   1.00
C7405  C     1.05996   0.79671   1.11753   0.00000  Uiso   1.00
H7406  H     0.90461   0.78700   1.00694   0.00000  Uiso   1.00
C7407  C     1.14647   0.75548   1.14326   0.00000  Uiso   1.00
H7408  H     1.09974   0.84921   1.17979   0.00000  Uiso   1.00
H7409  H     1.07219   0.79833   1.13617   0.00000  Uiso   1.00
H7410  H     1.03285   0.95121   1.09566   0.00000  Uiso   1.00
C7411  C     0.98399   0.83963   1.20002   0.00000  Uiso   1.00
C7412  C     1.15574   0.84581   1.11331   0.00000  Uiso   1.00
C7413  C     0.96159   0.80141   0.97319   0.00000  Uiso   1.00
C7414  C     1.13769   0.91749   1.08547   0.00000  Uiso   1.00
H7415  H     0.93691   0.83228   0.96415   0.00000  Uiso   1.00
H7416  H     0.97810   0.75068   1.15133   0.00000  Uiso   1.00
C7417  C     0.88977   0.82076   1.03371   0.00000  Uiso   1.00
H7418  H     1.10419   0.82031   1.12243   0.00000  Uiso   1.00
H7419  H     1.17587   0.92543   1.02224   0.00000  Uiso   1.00
N7420  N     1.18400   0.81721   0.98762   0.00000  Uiso   1.00
C7421  C     1.10232   0.79621   1.05691   0.00000  Uiso   1.00
C7422  C     1.16205   0.74622   1.12121   0.00000  Uiso   1.00
C7423  C     0.89025   0.87543   1.04987   0.00000  Uiso   1.00
O7424  O     0.93868   0.92706   1.00084   0.00000  Uiso   1.00
H7425  H     1.20207   0.95287   1.03568   0.00000  Uiso   1.00
H7426  H     1.02825   0.91746   1.01172   0.00000  Uiso   1.00
H7427  H     1.08269   0.84824   1.11757   0.00000  Uiso   1.00
H7428  H     1.13177   0.87853   1.12892   0.00000  Uiso   1.00
H7429  H     1.05457   0.83740   1.01419   0.00000  Uiso   1.00
C7430  C     0.98736   0.75567   1.13137   0.00000  Uiso   1.00
O7431  O     0.90651   0.94953   1.04713   0.00000  Uiso   1.00
H7432  H     1.04807   0.84693   1.08878   0.00000  Uiso   1.00
C7433  C     1.01451   0.75198   1.12597   0.00000  Uiso   1.00
H7434  H     0.94592   0.92381   1.15955   0.00000  Uiso   1.00
H7435  H     1.12025   0.86808   1.02320   0.00000  Uiso   1.00
C7436  C     1.03750   0.84590   1.00358   0.00000  Uiso   1.00
C7437  C     0.96111   0.84324   1.04376   0.00000  Uiso   1.00
C7438  C     1.19864   0.74889   1.00301   0.00000  Uiso   1.00
C7439  C     0.89356   0.79281   1.02693   0.00000  Uiso   1.00
H7440  H     1.01216   0.76617   1.17812   0.00000  Uiso   1.00
C7441  C     1.02399   0.89487   1.01562   0.00000  Uiso   1.00
O7442  O     0.98442   0.84584   1.17244   0.00000  Uiso   1.00
N7443  N     1.00248   0.83732   1.10722   0.00000  Uiso   1.00
C7444  C     1.03197   0.83125   0.97633   0.00000  Uiso   1.00
H7445  H     1.10583   0.88280   1.16867   0.00000  Uiso   1.00
C7446  C     0.90650   0.92082   1.04032   0.00000  Uiso   1.00
C7447  C     1.14676   0.78335   1.14854   0.00000  Uiso   1.00
C7448  C     0.95620   0.83905   1.06999   0.00000  Uiso   1.00
C7449  C     0.92128   0.91227   1.01747   0.00000  Uiso   1.00
C7450  C     0.99917   0.87096   1.16953   0.00000  Uiso   1.00
H7451  H     1.00178   0.89116   1.01298   0.00000  Uiso   1.00
H7452  H     1.19229   0.89354   1.02622   0.00000  Uiso   1.00
C7453  C     1.19548   0.75554   1.08483   0.00000  Uiso   1.00
H7454  H     1.05402   0.79260   1.02182   0.00000  Uiso   1.00
C7455  C     0.94169   0.85735   1.11449   0.00000  Uiso   1.00
C7456  C     1.17712   0.76693   1.00577   0.00000  Uiso   1.00
C7457  C     1.01613   0.78537   0.97718   0.00000  Uiso   1.00
C7458  C     1.17741   0.76460   1.10522   0.00000  Uiso   1.00
C7459  C     1.14171   0.95770   1.11573   0.00000  Uiso   1.00
C7460  C     1.13796   0.88093   1.01611   0.00000  Uiso   1.00
O7461  O     0.94915   0.75104   0.97529   0.00000  Uiso   1.00
C7462  C     1.03770   0.74536   1.14707   0.00000  Uiso   1.00
H7463  H     1.00064   0.74365   0.97873   0.00000  Uiso   1.00
O7464  O     1.13328   0.78115   1.02269   0.00000  Uiso   1.00
C7465  C     1.13264   0.79354   1.17124   0.00000  Uiso   1.00
C7466  C     1.09250   0.83182   1.10790   0.00000  Uiso   1.00
N7467  N     1.11975   0.80115   1.18927   0.00000  Uiso   1.00
H7468  H     1.02063   0.84222   1.01724   0.00000  Uiso   1.00
C7469  C     0.88254   0.77433   1.04379   0.00000  Uiso   1.00
C7470  C     1.07857   0.76412   1.08619   0.00000  Uiso   1.00
C7471  C     1.06473   0.74569   1.13120   0.00000  Uiso   1.00
H7472  H     1.18714   0.91534   1.05624   0.00000  Uiso   1.00
H7473  H     1.17423   0.94522   1.08615   0.00000  Uiso   1.00
H7474  H     1.02892   0.88894   1.03740   0.00000  Uiso   1.00
O7475  O     1.15605   0.83054   1.13689   0.00000  Uiso   1.00
O7476  O     0.93752   0.87951   1.13285   0.00000  Uiso   1.00
H7477  H     1.04025   0.78481   1.16665   0.00000  Uiso   1.00
O7478  O     1.18359   0.81139   1.08990   0.00000  Uiso   1.00
C7479  C     1.00610   0.85375   1.12352   0.00000  Uiso   1.00
C7480  C     1.00299   0.89016   1.19043   0.00000  Uiso   1.00
C7481  C     1.14940   0.73366   1.02930   0.00000  Uiso   1.00
H7482  H     1.06403   0.72715   1.11925   0.00000  Uiso   1.00
C7483  C     1.09118   0.74297   1.07215   0.00000  Uiso   1.00
N7484  N     0.92115   0.82369   1.17169   0.00000  Uiso   1.00
C7485  C     1.17045   0.83629   1.09010   0.00000  Uiso   1.00
C7486  C     0.93027   0.82716   1.15025   0.00000  Uiso   1.00
C7487  C     1.11171   0.86903   1.18413   0.00000  Uiso   1.00
C7488  C     1.17043   0.85179   1.06616   0.00000  Uiso   1.00
C7489  C     1.17352   0.79298   1.10960   0.00000  Uiso   1.00
C7490  C     1.06796   0.93442   1.13524   0.00000  Uiso   1.00
C7491  C     0.95472   0.92460   1.13915   0.00000  Uiso   1.00
H7492  H     1.11987   0.94331   0.97860   0.00000  Uiso   1.00
H7493  H     1.18233   0.84523   1.04737   0.00000  Uiso   1.00
H7494  H     1.11194   0.91099   1.04931   0.00000  Uiso   1.00
C7495  C     1.01081   0.87402   1.14261   0.00000  Uiso   1.00
C7496  C     0.97001   0.94707   1.13071   0.00000  Uiso   1.00
C7497  C     1.15115   0.89528   1.04217   0.00000  Uiso   1.00
C7498  C     0.88102   0.73154   1.01067   0.00000  Uiso   1.00
H7499  H     0.97724   0.95641   1.18597   0.00000  Uiso   1.00
C7500  C     1.03278   0.91556   1.15918   0.00000  Uiso   1.00
H7501  H     0.92520   0.74634   1.04484   0.00000  Uiso   1.00
C7502  C     0.96755   0.77277   0.97709   0.00000  Uiso   1.00
H7503  H     0.98031   0.92855   1.06590   0.00000  Uiso   1.00
N7504  N     0.96458   0.84785   1.02062   0.00000  Uiso   1.00
H7505  H     1.17551   0.87354   1.19126   0.00000  Uiso   1.00
C7506  C     1.19512   0.72380   1.01566   0.00000  Uiso   1.00
C7507  C     1.03239   0.87925   0.96922   0.00000  Uiso   1.00
C7508  C     1.11428   0.94383   1.11911   0.00000  Uiso   1.00
H7509  H     1.12917   0.89538   1.00271   0.00000  Uiso   1.00
C7510  C     1.11929   0.95788   1.20643   0.00000  Uiso   1.00
O7511  O     1.04298   0.89682   1.11448   0.00000  Uiso   1.00
C7512  C     1.06564   0.91305   1.11592   0.00000  Uiso   1.00
C7513  C     1.05458   0.81248   0.96773   0.00000  Uiso   1.00
C7514  C     1.03443   0.71627   1.15776   0.00000  Uiso   1.00
N7515  N     0.93522   0.86941   0.96506   0.00000  Uiso   1.00
H7516  H     1.13377   0.86584   1.18303   0.00000  Uiso   1.00
H7517  H     1.16884   0.92131   1.11172   0.00000  Uiso   1.00
H7518  H     1.07621   0.81838   0.97231   0.00000  Uiso   1.00
O7519  O     1.16438   0.71857   1.11495   0.00000  Uiso   1.00
C7520  C     0.98134   0.82092   0.97439   0.00000  Uiso   1.00
H7521  H     1.08382   0.93201   1.19913   0.00000  Uiso   1.00
C7522  C     1.02343   0.93207   1.20556   0.00000  Uiso   1.00
H7523  H     0.90917   0.72572   1.07046   0.00000  Uiso   1.00
C7524  C     0.99586   0.76556   0.97820   0.00000  Uiso   1.00
O7525  O     1.21059   0.83683   1.18033   0.00000  Uiso   1.00
C7526  C     1.18273   0.86219   1.20974   0.00000  Uiso   1.00
C7527  C     0.97461   0.92840   1.08710   0.00000  Uiso   1.00
C7528  C     0.91017   0.73032   1.04842   0.00000  Uiso   1.00
C7529  C     0.94096   0.95422   1.00999   0.00000  Uiso   1.00
C7530  C     0.98097   0.94869   1.10464   0.00000  Uiso   1.00
O7531  O     0.90075   0.83898   1.01578   0.00000  Uiso   1.00
C7532  C     1.09211   0.95007   1.13674   0.00000  Uiso   1.00
C7533  C     0.89317   0.90236   1.05711   0.00000  Uiso   1.00
O7534  O     1.12606   0.72656   1.04456   0.00000  Uiso   1.00
C7535  C     1.00834   0.81269   0.97656   0.00000  Uiso   1.00
N7536  N     1.20209   0.94874   1.18761   0.00000  Uiso   1.00
C7537  C     1.15206   0.96332   1.14418   0.00000  Uiso   1.00
C7538  C     1.10526   0.87973   1.21307   0.00000  Uiso   1.00
N7539  N     1.12254   0.83931   0.96836   0.00000  Uiso   1.00
H7540  H     1.15157   0.94515   1.15728   0.00000  Uiso   1.00
H7541  H     0.97725   0.84319   0.97592   0.00000  Uiso   1.00
C7542  C     1.04769   0.78427   0.97669   0.00000  Uiso   1.00
H7543  H     1.06429   0.88588   1.20251   0.00000  Uiso   1.00
H7544  H     1.09013   0.72223   1.07831   0.00000  Uiso   1.00
O7545  O     0.93514   0.81317   0.96999   0.00000  Uiso   1.00
H7546  H     0.95640   0.72123   1.01838   0.00000  Uiso   1.00
C7547  C     1.17198   0.71621   1.02875   0.00000  Uiso   1.00
H7548  H     0.97044   0.96213   0.98016   0.00000  Uiso   1.00
H7549  H     1.01279   0.71727   1.16475   0.00000  Uiso   1.00
H7550  H     1.02642   0.92370   0.96584   0.00000  Uiso   1.00
N7551  N     1.21103   0.74884   1.06807   0.00000  Uiso   1.00
C7552  C     0.88114   0.91172   1.08218   0.00000  Uiso   1.00
H7553  H     0.88206   0.95138   1.15972   0.00000  Uiso   1.00
H7554  H     1.05719   0.74026   0.97104   0.00000  Uiso   1.00
H7555  H     0.94125   0.99867   0.26386   0.00000  Uiso   1.00
C7556  C     0.94234   1.08635   0.42924   0.00000  Uiso   1.00
C7557  C     1.09160   1.19382   0.31518   0.00000  Uiso   1.00
C7558  C     1.03508   1.10266   0.41205   0.00000  Uiso   1.00
C7559  C     0.91973   1.01062   0.40869   0.00000  Uiso   1.00
H7560  H     0.92730   1.15842   0.24462   0.00000  Uiso   1.00
O7561  O     1.18238   1.10114   0.42925   0.00000  Uiso   1.00
H7562  H     0.93468   1.14380   0.45762   0.00000  Uiso   1.00
H7563  H     1.19392   1.07969   0.28206   0.00000  Uiso   1.00
C7564  C     1.08081   1.17134   0.29937   0.00000  Uiso   1.00
H7565  H     0.98237   0.98835   0.22707   0.00000  Uiso   1.00
H7566  H     0.92173   1.02557   0.27381   0.00000  Uiso   1.00
C7567  C     1.02300   1.13318   0.44925   0.00000  Uiso   1.00
C7568  C     1.05732   0.99224   0.34037   0.00000  Uiso   1.00
C7569  C     0.92363   1.10409   0.26455   0.00000  Uiso   1.00
H7570  H     0.92195   0.97888   0.34452   0.00000  Uiso   1.00
C7571  C     0.95321   1.01734   0.37145   0.00000  Uiso   1.00
C7572  C     0.91160   0.98969   0.36103   0.00000  Uiso   1.00
C7573  C     0.92423   1.00314   0.27719   0.00000  Uiso   1.00
H7574  H     1.01007   1.02044   0.36113   0.00000  Uiso   1.00
C7575  C     1.02986   1.03107   0.36655   0.00000  Uiso   1.00
H7576  H     1.01993   1.09678   0.27360   0.00000  Uiso   1.00
C7577  C     1.16795   1.08383   0.44604   0.00000  Uiso   1.00
H7578  H     1.03376   1.04912   0.35395   0.00000  Uiso   1.00
H7579  H     1.07886   0.99081   0.33661   0.00000  Uiso   1.00
C7580  C     1.13248   1.01806   0.44586   0.00000  Uiso   1.00
H7581  H     0.88352   1.01590   0.24148   0.00000  Uiso   1.00
H7582  H     1.00564   0.99032   0.33654   0.00000  Uiso   1.00
C7583  C     1.08077   1.02674   0.37542   0.00000  Uiso   1.00
C7584  C     1.09064   1.18558   0.40028   0.00000  Uiso   1.00
H7585  H     1.02698   1.03697   0.38830   0.00000  Uiso   1.00
N7586  N     1.12023   0.99993   0.43879   0.00000  Uiso   1.00
H7587  H     0.90133   0.98915   0.22584   0.00000  Uiso   1.00
H7588  H     1.17621   0.99032   0.36350   0.00000  Uiso   1.00
C7589  C     0.96512   0.99722   0.21619   0.00000  Uiso   1.00
H7590  H     1.20298   1.02568   0.31172   0.00000  Uiso   1.00
C7591  C     1.20963   0.96397   0.36954   0.00000  Uiso   1.00
C7592  C     0.93183   0.99770   0.38322   0.00000  Uiso   1.00
C7593  C     0.99833   1.11964   0.45443   0.00000  Uiso   1.00
C7594  C     0.90606   1.07987   0.27150   0.00000  Uiso   1.00
C7595  C     0.88695   0.99376   0.24229   0.00000  Uiso   1.00
H7596  H     0.98976   1.05247   0.26036   0.00000  Uiso   1.00
H7597  H     1.02821   0.99352   0.28618   0.00000  Uiso   1.00
C7598  C     1.15856   1.05718   0.43648   0.00000  Uiso   1.00
N7599  N     1.09585   1.20461   0.41347   0.00000  Uiso   1.00
H7600  H     1.19289   0.97661   0.45253   0.00000  Uiso   1.00
C7601  C     0.98502   1.09890   0.21902   0.00000  Uiso   1.00
C7602  C     0.97145   1.05078   0.45479   0.00000  Uiso   1.00
H7603  H     0.91295   1.06928   0.28893   0.00000  Uiso   1.00
C7604  C     1.21031   1.06842   0.32105   0.00000  Uiso   1.00
H7605  H     0.95163   1.12848   0.29063   0.00000  Uiso   1.00
C7606  C     0.99294   1.09635   0.43839   0.00000  Uiso   1.00
C7607  C     1.08265   1.16465   0.38215   0.00000  Uiso   1.00
C7608  C     0.98114   1.06507   0.27862   0.00000  Uiso   1.00
O7609  O     1.15994   0.98220   0.22522   0.00000  Uiso   1.00
C7610  C     0.95681   1.14955   0.45558   0.00000  Uiso   1.00
H7611  H     1.00647   1.09564   0.22295   0.00000  Uiso   1.00
O7612  O     1.06150   0.96586   0.45664   0.00000  Uiso   1.00
H7613  H     0.97786   1.04151   0.43539   0.00000  Uiso   1.00
H7614  H     1.12906   0.96738   0.34290   0.00000  Uiso   1.00
C7615  C     1.18939   1.08860   0.40479   0.00000  Uiso   1.00
H7616  H     0.96950   1.02207   0.38682   0.00000  Uiso   1.00
C7617  C     1.04047   1.12491   0.42822   0.00000  Uiso   1.00
O7618  O     1.06274   1.14151   0.42114   0.00000  Uiso   1.00
C7619  C     1.06725   1.12019   0.34797   0.00000  Uiso   1.00
H7620  H     1.14723   0.99549   0.32772   0.00000  Uiso   1.00
C7621  C     1.17999   1.05940   0.36585   0.00000  Uiso   1.00
C7622  C     1.18684   1.07884   0.30266   0.00000  Uiso   1.00
C7623  C     1.05393   1.01031   0.36640   0.00000  Uiso   1.00
C7624  C     0.96676   1.09806   0.24170   0.00000  Uiso   1.00
H7625  H     0.96118   1.05760   0.28256   0.00000  Uiso   1.00
O7626  O     1.04807   1.09676   0.38750   0.00000  Uiso   1.00
C7627  C     0.94765   1.10786   0.28475   0.00000  Uiso   1.00
C7628  C     0.91644   0.99427   0.46113   0.00000  Uiso   1.00
C7629  C     1.04900   0.98664   0.38741   0.00000  Uiso   1.00
C7630  C     0.91568   0.98783   0.42981   0.00000  Uiso   1.00
C7631  C     1.05112   0.98844   0.41462   0.00000  Uiso   1.00
H7632  H     0.96144   1.00984   0.35275   0.00000  Uiso   1.00
H7633  H     1.00269   1.11089   0.30324   0.00000  Uiso   1.00
C7634  C     0.93936   1.10096   0.23777   0.00000  Uiso   1.00
C7635  C     1.05852   1.09843   0.33148   0.00000  Uiso   1.00
C7636  C     1.06148   1.11970   0.37644   0.00000  Uiso   1.00
H7637  H     1.04854   0.99956   0.32187   0.00000  Uiso   1.00
H7638  H     1.09914   1.01306   0.37664   0.00000  Uiso   1.00
H7639  H     0.93228   1.00011   0.29932   0.00000  Uiso   1.00
H7640  H     1.01645   1.18580   0.24619   0.00000  Uiso   1.00
C7641  C     1.06095   1.21093   0.21581   0.00000  Uiso   1.00
H7642  H     0.94371   1.03631   0.36720   0.00000  Uiso   1.00
H7643  H     0.92379   1.07673   0.43789   0.00000  Uiso   1.00
C7644  C     1.08598   1.16708   0.35440   0.00000  Uiso   1.00
H7645  H     1.05814   1.16248   0.26060   0.00000  Uiso   1.00
C7646  C     0.88565   1.17214   0.24869   0.00000  Uiso   1.00
H7647  H     0.89613   0.97813   0.36936   0.00000  Uiso   1.00
C7648  C     1.00141   1.11055   0.27999   0.00000  Uiso   1.00
C7649  C     0.96610   1.08323   0.44903   0.00000  Uiso   1.00
H7650  H     1.08357   1.04327   0.35909   0.00000  Uiso   1.00
H7651  H     0.93946   1.10855   0.42520   0.00000  Uiso   1.00
C7652  C     1.14692   1.04008   0.45538   0.00000  Uiso   1.00
C7653  C     1.07020   1.14108   0.39297   0.00000  Uiso   1.00
H7654  H     1.00946   1.06653   0.40971   0.00000  Uiso   1.00
C7655  C     0.94257   0.97089   0.39361   0.00000  Uiso   1.00
H7656  H     0.96269   1.15158   0.43360   0.00000  Uiso   1.00
O7657  O     1.08087   1.14508   0.30951   0.00000  Uiso   1.00
C7658  C     1.07753   1.14529   0.33717   0.00000  Uiso   1.00
H7659  H     0.88909   1.10153   0.31936   0.00000  Uiso   1.00
H7660  H     1.05366   1.00817   0.42596   0.00000  Uiso   1.00
C7661  C     0.97531   1.09542   0.27140   0.00000  Uiso   1.00
O7662  O     1.15672   1.05038   0.40826   0.00000  Uiso   1.00
H7663  H     0.94334   1.09596   0.30426   0.00000  Uiso   1.00
H7664  H     0.90389   1.06551   0.25518   0.00000  Uiso   1.00
C7665  C     1.20119   1.07117   0.35094   0.00000  Uiso   1.00
N7666  N     1.05104   1.08103   0.31781   0.00000  Uiso   1.00
H7667  H     1.17609   0.97824   0.41913   0.00000  Uiso   1.00
H7668  H     0.94794   1.07706   0.40907   0.00000  Uiso   1.00
C7669  C     1.01278   1.08631   0.42141   0.00000  Uiso   1.00
C7670  C     1.18334   1.03318   0.23571   0.00000  Uiso   1.00
H7671  H     1.17748   1.09668   0.31063   0.00000  Uiso   1.00
H7672  H     1.07596   1.03711   0.39375   0.00000  Uiso   1.00
C7673  C     0.89965   0.98561   0.26981   0.00000  Uiso   1.00
C7674  C     1.01949   1.20572   0.23735   0.00000  Uiso   1.00
C7675  C     1.19418   0.98393   0.43086   0.00000  Uiso   1.00
C7676  C     0.90347   1.12809   0.26320   0.00000  Uiso   1.00
C7677  C     1.17515   1.06606   0.39305   0.00000  Uiso   1.00
H7678  H     1.00655   1.13329   0.27664   0.00000  Uiso   1.00
C7679  C     1.06823   1.17746   0.27469   0.00000  Uiso   1.00
O7680  O     1.09561   1.19128   0.34456   0.00000  Uiso   1.00
C7681  C     0.90687   1.15381   0.25248   0.00000  Uiso   1.00
H7682  H     0.99466   1.06121   0.29552   0.00000  Uiso   1.00
H7683  H     0.93622   1.02514   0.41645   0.00000  Uiso   1.00
H7684  H     1.02939   1.15096   0.46025   0.00000  Uiso   1.00
H7685  H     1.16924   1.06323   0.30333   0.00000  Uiso   1.00
H7686  H     0.98935   0.99136   0.28296   0.00000  Uiso   1.00
N7687  N     1.20214   1.03509   0.24892   0.00000  Uiso   1.00
H7688  H     0.97826   1.20110   0.43561   0.00000  Uiso   1.00
C7689  C     1.21231   1.09844   0.39152   0.00000  Uiso   1.00
C7690  C     0.88503   0.97576   0.42993   0.00000  Uiso   1.00
C7691  C     1.01258   0.96852   0.33522   0.00000  Uiso   1.00
H7692  H     1.00239   1.17896   0.44942   0.00000  Uiso   1.00
H7693  H     1.16832   1.04245   0.35683   0.00000  Uiso   1.00
C7694  C     1.14518   0.97274   0.32870   0.00000  Uiso   1.00
H7695  H     1.19409   1.00554   0.43031   0.00000  Uiso   1.00
C7696  C     1.16054   1.03002   0.21904   0.00000  Uiso   1.00
O7697  O     0.89036   1.19607   0.23467   0.00000  Uiso   1.00
C7698  C     0.93686   0.96632   0.42203   0.00000  Uiso   1.00
C7699  C     1.01011   0.98057   0.28379   0.00000  Uiso   1.00
H7700  H     0.90266   1.00758   0.35179   0.00000  Uiso   1.00
H7701  H     0.90154   1.02442   0.40490   0.00000  Uiso   1.00
C7702  C     1.04275   0.96456   0.34392   0.00000  Uiso   1.00
C7703  C     0.98646   1.19216   0.45526   0.00000  Uiso   1.00
C7704  C     1.17860   0.96912   0.36844   0.00000  Uiso   1.00
H7705  H     0.93159   1.19928   0.45156   0.00000  Uiso   1.00
H7706  H     1.01346   0.97172   0.26251   0.00000  Uiso   1.00
H7707  H     0.95853   1.01659   0.22493   0.00000  Uiso   1.00
C7708  C     1.06383   1.20459   0.26621   0.00000  Uiso   1.00
H7709  H     0.95266   1.04234   0.46083   0.00000  Uiso   1.00
H7710  H     0.88156   1.03716   0.45035   0.00000  Uiso   1.00
H7711  H     1.10398   1.21108   0.22478   0.00000  Uiso   1.00
C7712  C     1.05540   0.96493   0.42935   0.00000  Uiso   1.00
H7713  H     1.13895   0.96543   0.30883   0.00000  Uiso   1.00
F7714  F     1.16007   1.07823   0.21426   0.00000  Uiso   1.00
H7715  H     0.94705   0.98318   0.21642   0.00000  Uiso   1.00
C7716  C     1.14640   1.00525   0.21595   0.00000  Uiso   1.00
C7717  C     1.09883   1.17002   0.52885   0.00000  Uiso   1.00
C7718  C     0.97338   1.12718   0.47092   0.00000  Uiso   1.00
H7719  H     1.03162   1.16303   0.50563   0.00000  Uiso   1.00
C7720  C     0.93896   1.19433   0.47216   0.00000  Uiso   1.00
C7721  C     1.13329   1.04064   0.61552   0.00000  Uiso   1.00
H7722  H     1.14425   0.97014   0.62433   0.00000  Uiso   1.00
C7723  C     1.09615   0.98324   0.58047   0.00000  Uiso   1.00
C7724  C     0.94215   1.03196   0.70985   0.00000  Uiso   1.00
C7725  C     0.89207   1.20324   0.54994   0.00000  Uiso   1.00
C7726  C     1.13890   1.04364   0.58466   0.00000  Uiso   1.00
C7727  C     1.15369   1.07228   0.49249   0.00000  Uiso   1.00
H7728  H     0.89284   1.02381   0.60843   0.00000  Uiso   1.00
C7729  C     1.13510   1.01228   0.54696   0.00000  Uiso   1.00
C7730  C     1.14843   1.20378   0.55055   0.00000  Uiso   1.00
H7731  H     0.90631   0.99580   0.51298   0.00000  Uiso   1.00
C7732  C     0.94422   1.17379   0.63885   0.00000  Uiso   1.00
C7733  C     1.08302   1.13428   0.55841   0.00000  Uiso   1.00
C7734  C     1.14136   1.03250   0.52849   0.00000  Uiso   1.00
N7735  N     0.94269   1.07771   0.61159   0.00000  Uiso   1.00
C7736  C     1.13809   1.11901   0.70112   0.00000  Uiso   1.00
N7737  N     1.20201   1.09897   0.56688   0.00000  Uiso   1.00
H7738  H     1.14223   1.08188   0.62727   0.00000  Uiso   1.00
C7739  C     1.13311   1.01692   0.57381   0.00000  Uiso   1.00
H7740  H     0.88545   1.17943   0.60005   0.00000  Uiso   1.00
C7741  C     0.99889   1.01570   0.58659   0.00000  Uiso   1.00
C7742  C     1.09146   1.13594   0.70555   0.00000  Uiso   1.00
H7743  H     1.10325   1.00957   0.63520   0.00000  Uiso   1.00
H7744  H     1.12708   0.99399   0.53875   0.00000  Uiso   1.00
C7745  C     1.02220   1.20119   0.70036   0.00000  Uiso   1.00
H7746  H     1.09568   1.15754   0.47569   0.00000  Uiso   1.00
C7747  C     0.92537   1.14834   0.68538   0.00000  Uiso   1.00
H7748  H     1.13096   1.21057   0.53828   0.00000  Uiso   1.00
H7749  H     0.88994   1.07735   0.59104   0.00000  Uiso   1.00
C7750  C     1.04526   1.03954   0.64141   0.00000  Uiso   1.00
C7751  C     1.07544   0.99461   0.56457   0.00000  Uiso   1.00
C7752  C     1.13148   1.13134   0.67566   0.00000  Uiso   1.00
H7753  H     1.16377   1.21250   0.60917   0.00000  Uiso   1.00
H7754  H     1.17450   1.17895   0.59901   0.00000  Uiso   1.00
N7755  N     0.97078   1.03468   0.52396   0.00000  Uiso   1.00
H7756  H     1.00125   1.06622   0.69266   0.00000  Uiso   1.00
O7757  O     0.96960   1.12635   0.57156   0.00000  Uiso   1.00
N7758  N     1.08613   1.00024   0.51041   0.00000  Uiso   1.00
C7759  C     1.01194   1.16387   0.66973   0.00000  Uiso   1.00
H7760  H     0.91715   1.06237   0.68881   0.00000  Uiso   1.00
C7761  C     0.97750   1.12696   0.52543   0.00000  Uiso   1.00
H7762  H     1.14679   1.18070   0.61923   0.00000  Uiso   1.00
C7763  C     1.09024   1.18145   0.57747   0.00000  Uiso   1.00
H7764  H     1.12468   1.06484   0.65198   0.00000  Uiso   1.00
C7765  C     1.06762   1.13268   0.53546   0.00000  Uiso   1.00
H7766  H     0.92327   1.11382   0.71111   0.00000  Uiso   1.00
C7767  C     0.97386   1.16854   0.49894   0.00000  Uiso   1.00
O7768  O     1.03619   0.99230   0.53675   0.00000  Uiso   1.00
C7769  C     1.10400   1.14749   0.67879   0.00000  Uiso   1.00
O7770  O     1.02141   1.07506   0.54853   0.00000  Uiso   1.00
C7771  C     1.14611   1.06416   0.56634   0.00000  Uiso   1.00
C7772  C     0.97423   1.14203   0.54927   0.00000  Uiso   1.00
H7773  H     0.97563   1.20487   0.52210   0.00000  Uiso   1.00
H7774  H     0.96058   0.97476   0.68450   0.00000  Uiso   1.00
H7775  H     0.91171   1.15750   0.56949   0.00000  Uiso   1.00
C7776  C     1.01799   1.05798   0.57269   0.00000  Uiso   1.00
H7777  H     1.14991   1.08535   0.57569   0.00000  Uiso   1.00
O7778  O     0.93479   1.19060   0.65954   0.00000  Uiso   1.00
C7779  C     1.08479   1.14087   0.65602   0.00000  Uiso   1.00
C7780  C     1.03668   1.20123   0.65448   0.00000  Uiso   1.00
C7781  C     1.04869   1.17404   0.51248   0.00000  Uiso   1.00
H7782  H     1.00146   1.00371   0.69835   0.00000  Uiso   1.00
C7783  C     1.07507   1.15585   0.51589   0.00000  Uiso   1.00
C7784  C     0.96046   1.14209   0.59437   0.00000  Uiso   1.00
H7785  H     0.96949   1.07734   0.68830   0.00000  Uiso   1.00
C7786  C     1.10100   1.16029   0.55878   0.00000  Uiso   1.00
H7787  H     0.90630   1.15293   0.53316   0.00000  Uiso   1.00
H7788  H     1.18826   1.19486   0.48153   0.00000  Uiso   1.00
C7789  C     1.09098   0.98106   0.49848   0.00000  Uiso   1.00
O7790  O     1.01637   0.99245   0.62835   0.00000  Uiso   1.00
C7791  C     0.92061   1.13682   0.71079   0.00000  Uiso   1.00
C7792  C     1.14734   1.05883   0.53845   0.00000  Uiso   1.00
C7793  C     0.94617   1.10065   0.61501   0.00000  Uiso   1.00
C7794  C     1.16743   1.11674   0.48177   0.00000  Uiso   1.00
C7795  C     1.15863   1.02760   0.62846   0.00000  Uiso   1.00
O7796  O     0.98267   0.99377   0.57935   0.00000  Uiso   1.00
H7797  H     1.07321   1.12387   0.70150   0.00000  Uiso   1.00
C7798  C     1.10980   1.20097   0.58475   0.00000  Uiso   1.00
C7799  C     1.18133   1.10271   0.68295   0.00000  Uiso   1.00
C7800  C     1.03441   1.05898   0.59547   0.00000  Uiso   1.00
H7801  H     1.06438   1.14861   0.65958   0.00000  Uiso   1.00
N7802  N     1.05486   1.03996   0.66307   0.00000  Uiso   1.00
C7803  C     0.95722   1.18611   0.61690   0.00000  Uiso   1.00
C7804  C     0.99899   1.03661   0.56855   0.00000  Uiso   1.00
H7805  H     1.14335   1.13457   0.63517   0.00000  Uiso   1.00
C7806  C     1.04284   1.09404   0.55243   0.00000  Uiso   1.00
C7807  C     1.20700   1.08724   0.63540   0.00000  Uiso   1.00
N7808  N     1.06985   0.98165   0.66125   0.00000  Uiso   1.00
C7809  C     0.95965   1.09961   0.47494   0.00000  Uiso   1.00
C7810  C     1.14596   1.04563   0.48293   0.00000  Uiso   1.00
H7811  H     1.05263   1.16110   0.58834   0.00000  Uiso   1.00
C7812  C     1.01635   1.01563   0.60986   0.00000  Uiso   1.00
H7813  H     0.97448   1.10469   0.52777   0.00000  Uiso   1.00
H7814  H     1.09357   1.15433   0.64031   0.00000  Uiso   1.00
C7815  C     1.05995   1.19532   0.61272   0.00000  Uiso   1.00
C7816  C     1.06630   1.17836   0.59216   0.00000  Uiso   1.00
O7817  O     1.05259   1.07957   0.59984   0.00000  Uiso   1.00
H7818  H     0.96303   1.04431   0.65363   0.00000  Uiso   1.00
H7819  H     0.92356   1.18237   0.48337   0.00000  Uiso   1.00
C7820  C     1.03240   1.03838   0.61514   0.00000  Uiso   1.00
C7821  C     1.07222   0.98032   0.68509   0.00000  Uiso   1.00
O7822  O     1.14037   1.02496   0.50157   0.00000  Uiso   1.00
C7823  C     0.94942   1.12955   0.61683   0.00000  Uiso   1.00
C7824  C     1.20924   1.08936   0.58707   0.00000  Uiso   1.00
N7825  N     1.00238   1.14228   0.66467   0.00000  Uiso   1.00
C7826  C     1.05834   1.09506   0.57728   0.00000  Uiso   1.00
H7827  H     1.15396   0.97338   0.59103   0.00000  Uiso   1.00
C7828  C     0.97815   1.18318   0.52274   0.00000  Uiso   1.00
C7829  C     0.96977   1.03371   0.69616   0.00000  Uiso   1.00
C7830  C     0.94002   1.14424   0.63913   0.00000  Uiso   1.00
O7831  O     0.92986   1.13199   0.66286   0.00000  Uiso   1.00
C7832  C     0.97637   1.13978   0.49945   0.00000  Uiso   1.00
C7833  C     1.13021   1.15928   0.56948   0.00000  Uiso   1.00
H7834  H     1.15466   1.01781   0.64809   0.00000  Uiso   1.00
H7835  H     1.09632   1.19223   0.52859   0.00000  Uiso   1.00
H7836  H     1.11952   1.16671   0.51895   0.00000  Uiso   1.00
H7837  H     1.11820   1.18361   0.65937   0.00000  Uiso   1.00
H7838  H     1.09019   1.18830   0.68372   0.00000  Uiso   1.00
C7839  C     1.15022   1.12976   0.65482   0.00000  Uiso   1.00
O7840  O     1.03802   1.18793   0.62871   0.00000  Uiso   1.00
C7841  C     1.12451   1.06712   0.63007   0.00000  Uiso   1.00
H7842  H     1.07822   1.01620   0.56077   0.00000  Uiso   1.00
C7843  C     1.07604   1.11696   0.58001   0.00000  Uiso   1.00
C7844  C     1.16350   1.09016   0.47324   0.00000  Uiso   1.00
H7845  H     1.04340   1.00252   0.52179   0.00000  Uiso   1.00
H7846  H     1.03716   1.11074   0.51337   0.00000  Uiso   1.00
C7847  C     1.02273   1.18893   0.67569   0.00000  Uiso   1.00
C7848  C     1.11035   1.17752   0.68027   0.00000  Uiso   1.00
C7849  C     0.98259   1.03540   0.54417   0.00000  Uiso   1.00
C7850  C     1.04888   1.11182   0.53169   0.00000  Uiso   1.00
H7851  H     1.13342   1.14796   0.58848   0.00000  Uiso   1.00
H7852  H     1.08808   1.11887   0.59934   0.00000  Uiso   1.00
H7853  H     1.10552   1.07197   0.62105   0.00000  Uiso   1.00
C7854  C     1.08482   1.14264   0.48935   0.00000  Uiso   1.00
C7855  C     1.11001   1.01962   0.61556   0.00000  Uiso   1.00
H7856  H     0.98604   1.01692   0.66071   0.00000  Uiso   1.00
H7857  H     0.99589   1.20866   0.46628   0.00000  Uiso   1.00
C7858  C     0.96757   1.02621   0.66619   0.00000  Uiso   1.00
H7859  H     1.09051   1.02862   0.60792   0.00000  Uiso   1.00
H7860  H     1.14514   1.14995   0.55474   0.00000  Uiso   1.00
C7861  C     1.11913   0.99739   0.59514   0.00000  Uiso   1.00
H7862  H     0.93042   1.01095   0.46677   0.00000  Uiso   1.00
H7863  H     0.95012   1.01070   0.66017   0.00000  Uiso   1.00
C7864  C     1.13795   1.19003   0.57628   0.00000  Uiso   1.00
H7865  H     1.17398   1.04292   0.63370   0.00000  Uiso   1.00
H7866  H     0.96964   1.08928   0.49221   0.00000  Uiso   1.00
C7867  C     1.17525   1.11551   0.65769   0.00000  Uiso   1.00
C7868  C     0.91922   1.04771   0.70503   0.00000  Uiso   1.00
O7869  O     1.15285   1.07984   0.52027   0.00000  Uiso   1.00
C7870  C     1.16352   1.10643   0.70418   0.00000  Uiso   1.00
C7871  C     0.98939   0.97031   0.59162   0.00000  Uiso   1.00
H7872  H     0.92737   1.20100   0.57510   0.00000  Uiso   1.00
H7873  H     1.08329   1.11981   0.64760   0.00000  Uiso   1.00
C7874  C     0.88233   1.03092   0.47121   0.00000  Uiso   1.00
N7875  N     1.16837   1.14008   0.48719   0.00000  Uiso   1.00
C7876  C     0.96410   1.17141   0.59399   0.00000  Uiso   1.00
C7877  C     0.92034   1.19339   0.70516   0.00000  Uiso   1.00
C7878  C     0.96456   1.17592   0.47059   0.00000  Uiso   1.00
H7879  H     1.05164   1.18880   0.49838   0.00000  Uiso   1.00
H7880  H     1.15867   1.18742   0.53777   0.00000  Uiso   1.00
H7881  H     1.16974   1.01357   0.61379   0.00000  Uiso   1.00
C7882  C     0.97614   1.17020   0.54947   0.00000  Uiso   1.00
C7883  C     0.88744   0.99098   0.50134   0.00000  Uiso   1.00
O7884  O     0.97335   1.18599   0.57183   0.00000  Uiso   1.00
C7885  C     0.92561   1.17753   0.68220   0.00000  Uiso   1.00
C7886  C     1.15678   1.19045   0.60147   0.00000  Uiso   1.00
H7887  H     1.12553   1.18243   0.69601   0.00000  Uiso   1.00
H7888  H     1.04162   1.18542   0.53037   0.00000  Uiso   1.00
O7889  O     1.18933   1.11012   0.63307   0.00000  Uiso   1.00
C7890  C     1.05514   0.97911   0.55168   0.00000  Uiso   1.00
C7891  C     1.00647   0.96968   0.61526   0.00000  Uiso   1.00
H7892  H     1.09992   1.12698   0.49514   0.00000  Uiso   1.00
O7893  O     1.20361   1.08514   0.68489   0.00000  Uiso   1.00
H7894  H     1.10442   1.07227   0.69810   0.00000  Uiso   1.00
C7895  C     0.98188   1.06187   0.70038   0.00000  Uiso   1.00
H7896  H     0.89793   1.04391   0.48120   0.00000  Uiso   1.00
C7897  C     0.89697   1.15329   0.55468   0.00000  Uiso   1.00
H7898  H     0.98554   1.04796   0.47127   0.00000  Uiso   1.00
H7899  H     0.88710   0.96873   0.50091   0.00000  Uiso   1.00
C7900  C     1.13610   0.97303   0.60428   0.00000  Uiso   1.00
O7901  O     0.88787   0.99474   0.65459   0.00000  Uiso   1.00
C7902  C     0.95970   0.96981   0.70652   0.00000  Uiso   1.00
H7903  H     1.06834   1.13225   0.47857   0.00000  Uiso   1.00
H7904  H     0.92413   0.97699   0.47357   0.00000  Uiso   1.00
H7905  H     0.94475   1.21340   0.48233   0.00000  Uiso   1.00
H7906  H     0.88471   1.13524   0.55672   0.00000  Uiso   1.00
C7907  C     0.88816   1.00055   0.47089   0.00000  Uiso   1.00
H7908  H     0.93706   1.10146   0.47951   0.00000  Uiso   1.00
C7909  C     1.19972   1.20678   0.46592   0.00000  Uiso   1.00
H7910  H     0.89187   1.03713   0.56126   0.00000  Uiso   1.00
C7911  C     0.98701   1.01328   0.71234   0.00000  Uiso   1.00
C7912  C     0.91562   1.21365   0.56050   0.00000  Uiso   1.00
C7913  C     0.92934   1.07772   0.88910   0.00000  Uiso   1.00
C7914  C     0.92761   1.10606   0.88389   0.00000  Uiso   1.00
H7915  H     1.13765   1.20959   0.93149   0.00000  Uiso   1.00
C7916  C     0.92743   1.12444   0.90401   0.00000  Uiso   1.00
O7917  O     1.07781   1.02508   0.77379   0.00000  Uiso   1.00
C7918  C     1.08643   1.01979   0.93488   0.00000  Uiso   1.00
O7919  O     1.16498   1.06930   0.89368   0.00000  Uiso   1.00
H7920  H     0.94947   1.12726   0.76090   0.00000  Uiso   1.00
C7921  C     0.91408   1.18285   0.72967   0.00000  Uiso   1.00
H7922  H     0.92471   1.11356   0.86324   0.00000  Uiso   1.00
C7923  C     0.92912   1.16272   0.93243   0.00000  Uiso   1.00
H7924  H     1.14262   1.03036   0.92167   0.00000  Uiso   1.00
H7925  H     0.97952   1.15575   0.88689   0.00000  Uiso   1.00
C7926  C     1.04465   1.19598   0.83337   0.00000  Uiso   1.00
O7927  O     0.93396   1.06040   0.86677   0.00000  Uiso   1.00
N7928  N     1.19332   1.02802   0.94697   0.00000  Uiso   1.00
C7929  C     1.09297   0.98992   0.93219   0.00000  Uiso   1.00
C7930  C     1.18852   1.14192   0.85228   0.00000  Uiso   1.00
C7931  C     0.93422   1.20843   0.84899   0.00000  Uiso   1.00
C7932  C     1.13736   1.18901   0.94034   0.00000  Uiso   1.00
C7933  C     0.92681   1.06936   0.91506   0.00000  Uiso   1.00
C7934  C     0.93352   1.03271   0.87370   0.00000  Uiso   1.00
C7935  C     1.16060   1.17230   0.93427   0.00000  Uiso   1.00
H7936  H     1.14625   1.11442   0.79743   0.00000  Uiso   1.00
H7937  H     1.08949   1.16237   0.78033   0.00000  Uiso   1.00
C7938  C     1.08241   1.06274   0.91086   0.00000  Uiso   1.00
C7939  C     0.96496   1.16901   0.87685   0.00000  Uiso   1.00
H7940  H     1.08417   1.15153   0.71929   0.00000  Uiso   1.00
C7941  C     1.06974   1.19051   0.94073   0.00000  Uiso   1.00
C7942  C     1.16238   1.14601   0.94710   0.00000  Uiso   1.00
H7943  H     1.16483   0.96700   0.84538   0.00000  Uiso   1.00
H7944  H     1.07941   0.97559   0.89248   0.00000  Uiso   1.00
H7945  H     1.03913   1.09463   0.93222   0.00000  Uiso   1.00
C7946  C     1.10124   1.04353   0.91943   0.00000  Uiso   1.00
H7947  H     1.14536   1.13081   0.75144   0.00000  Uiso   1.00
C7948  C     0.96763   0.99346   0.72687   0.00000  Uiso   1.00
C7949  C     1.05336   1.05535   0.91658   0.00000  Uiso   1.00
H7950  H     0.95066   1.16763   0.93155   0.00000  Uiso   1.00
C7951  C     1.19807   1.09384   0.86885   0.00000  Uiso   1.00
C7952  C     1.08287   1.14104   0.77699   0.00000  Uiso   1.00
O7953  O     1.12731   1.11426   0.88360   0.00000  Uiso   1.00
H7954  H     1.04008   1.01910   0.94004   0.00000  Uiso   1.00
C7955  C     0.93547   0.98597   0.85819   0.00000  Uiso   1.00
H7956  H     1.12299   1.15927   0.74794   0.00000  Uiso   1.00
N7957  N     1.13331   1.18023   0.86082   0.00000  Uiso   1.00
C7958  C     1.08604   1.04854   0.76021   0.00000  Uiso   1.00
C7959  C     1.12641   1.12398   0.79925   0.00000  Uiso   1.00
H7960  H     1.02015   1.06789   0.94555   0.00000  Uiso   1.00
H7961  H     0.94114   1.16860   0.78503   0.00000  Uiso   1.00
C7962  C     0.93833   1.17235   0.88308   0.00000  Uiso   1.00
C7963  C     0.89236   1.16020   0.89399   0.00000  Uiso   1.00
C7964  C     1.12814   1.04529   0.91444   0.00000  Uiso   1.00
C7965  C     1.08795   0.97101   0.91261   0.00000  Uiso   1.00
H7966  H     0.90495   1.17426   0.79705   0.00000  Uiso   1.00
N7967  N     1.06542   1.15502   0.85716   0.00000  Uiso   1.00
O7968  O     1.00374   1.17847   0.84997   0.00000  Uiso   1.00
C7969  C     0.90072   1.03162   0.74778   0.00000  Uiso   1.00
N7970  N     1.00757   0.99820   0.89113   0.00000  Uiso   1.00
C7971  C     1.04051   1.07384   0.93888   0.00000  Uiso   1.00
H7972  H     1.06846   1.13469   0.79324   0.00000  Uiso   1.00
C7973  C     0.92895   1.12265   0.76970   0.00000  Uiso   1.00
C7974  C     1.10375   1.09494   0.73518   0.00000  Uiso   1.00
C7975  C     0.91897   1.19478   0.75788   0.00000  Uiso   1.00
H7976  H     1.07780   1.10343   0.89339   0.00000  Uiso   1.00
C7977  C     0.92607   1.08740   0.93654   0.00000  Uiso   1.00
C7978  C     0.94266   1.01056   0.73021   0.00000  Uiso   1.00
H7979  H     0.92398   1.00156   0.76865   0.00000  Uiso   1.00
H7980  H     0.98283   0.99661   0.95363   0.00000  Uiso   1.00
O7981  O     1.18290   1.12725   0.94161   0.00000  Uiso   1.00
C7982  C     1.11885   1.09009   0.89407   0.00000  Uiso   1.00
C7983  C     1.14612   1.16123   0.86250   0.00000  Uiso   1.00
C7984  C     1.09116   1.08662   0.89968   0.00000  Uiso   1.00
H7985  H     0.93363   1.11974   0.79177   0.00000  Uiso   1.00
H7986  H     1.04493   1.05546   0.87110   0.00000  Uiso   1.00
C7987  C     0.93753   1.01338   0.85343   0.00000  Uiso   1.00
C7988  C     0.99273   1.20426   0.73606   0.00000  Uiso   1.00
C7989  C     1.06482   0.97698   0.77049   0.00000  Uiso   1.00
C7990  C     0.91317   1.15351   0.73302   0.00000  Uiso   1.00
C7991  C     0.92219   1.15553   0.90341   0.00000  Uiso   1.00
C7992  C     0.94126   1.02423   0.82789   0.00000  Uiso   1.00
N7993  N     0.94421   1.03341   0.80691   0.00000  Uiso   1.00
H7994  H     0.99961   1.02364   0.72756   0.00000  Uiso   1.00
C7995  C     1.03496   1.06087   0.89096   0.00000  Uiso   1.00
H7996  H     0.92208   1.10221   0.76258   0.00000  Uiso   1.00
C7997  C     1.20594   1.16956   0.92456   0.00000  Uiso   1.00
H7998  H     0.96739   1.16876   0.74661   0.00000  Uiso   1.00
C7999  C     0.93061   0.97852   0.88654   0.00000  Uiso   1.00
H8000  H     0.98176   1.00350   0.78095   0.00000  Uiso   1.00
C8001  C     0.92791   1.11488   0.93077   0.00000  Uiso   1.00
H8002  H     1.02711   1.08167   0.88833   0.00000  Uiso   1.00
O8003  O     0.88344   1.03306   0.77046   0.00000  Uiso   1.00
C8004  C     0.92919   1.13725   0.95124   0.00000  Uiso   1.00
C8005  C     0.96998   1.19105   0.74700   0.00000  Uiso   1.00
C8006  C     1.08936   1.04771   0.73118   0.00000  Uiso   1.00
C8007  C     1.05658   1.17444   0.84637   0.00000  Uiso   1.00
H8008  H     0.88682   1.14401   0.87999   0.00000  Uiso   1.00
H8009  H     1.08569   1.07223   0.79797   0.00000  Uiso   1.00
C8010  C     0.88068   1.13905   0.76921   0.00000  Uiso   1.00
O8011  O     1.08786   1.02496   0.71540   0.00000  Uiso   1.00
H8012  H     0.92217   1.07946   0.95655   0.00000  Uiso   1.00
C8013  C     1.01651   1.19790   0.83454   0.00000  Uiso   1.00
O8014  O     0.99566   0.96738   0.82421   0.00000  Uiso   1.00
C8015  C     1.07349   1.00180   0.75832   0.00000  Uiso   1.00
C8016  C     1.06308   0.97633   0.79803   0.00000  Uiso   1.00
C8017  C     0.89221   1.18666   0.87667   0.00000  Uiso   1.00
C8018  C     1.10103   1.09595   0.76279   0.00000  Uiso   1.00
H8019  H     1.11321   1.11895   0.81683   0.00000  Uiso   1.00
H8020  H     1.05328   1.01378   0.90862   0.00000  Uiso   1.00
H8021  H     1.06942   1.14053   0.75908   0.00000  Uiso   1.00
C8022  C     0.92240   1.19055   0.86747   0.00000  Uiso   1.00
O8023  O     1.18157   1.18332   0.91892   0.00000  Uiso   1.00
O8024  O     0.93803   0.96722   0.83711   0.00000  Uiso   1.00
H8025  H     1.07727   1.17531   0.92614   0.00000  Uiso   1.00
H8026  H     1.07394   1.20449   0.88763   0.00000  Uiso   1.00
C8027  C     1.16384   1.13914   0.86480   0.00000  Uiso   1.00
C8028  C     1.13788   1.06845   0.90041   0.00000  Uiso   1.00
C8029  C     1.05632   1.02561   0.92628   0.00000  Uiso   1.00
O8030  O     1.01016   1.18693   0.72134   0.00000  Uiso   1.00
H8031  H     1.13059   1.14600   0.80409   0.00000  Uiso   1.00
C8032  C     0.92785   0.99747   0.90714   0.00000  Uiso   1.00
C8033  C     0.92975   1.02478   0.90128   0.00000  Uiso   1.00
H8034  H     1.01605   1.04998   0.89297   0.00000  Uiso   1.00
C8035  C     1.17322   1.09377   0.88017   0.00000  Uiso   1.00
C8036  C     1.09119   1.07248   0.77602   0.00000  Uiso   1.00
N8037  N     1.06190   0.97636   0.82163   0.00000  Uiso   1.00
C8038  C     1.15423   1.11505   0.87579   0.00000  Uiso   1.00
C8039  C     0.92172   1.01119   0.74891   0.00000  Uiso   1.00
C8040  C     0.98195   1.01718   0.96104   0.00000  Uiso   1.00
C8041  C     1.10988   1.12442   0.77292   0.00000  Uiso   1.00
C8042  C     0.91938   0.98992   0.93409   0.00000  Uiso   1.00
O8043  O     0.92637   1.04258   0.92255   0.00000  Uiso   1.00
C8044  C     0.90968   1.14633   0.76383   0.00000  Uiso   1.00
C8045  C     1.11466   1.12187   0.72221   0.00000  Uiso   1.00
H8046  H     0.91897   1.17926   0.94070   0.00000  Uiso   1.00
C8047  C     1.09837   1.07198   0.71959   0.00000  Uiso   1.00
N8048  N     0.91273   0.98398   0.95653   0.00000  Uiso   1.00
H8049  H     1.16727   1.09711   0.72491   0.00000  Uiso   1.00
H8050  H     0.96179   1.02372   0.95246   0.00000  Uiso   1.00
C8051  C     1.12400   1.13651   0.74785   0.00000  Uiso   1.00
O8052  O     1.19545   1.16577   0.83905   0.00000  Uiso   1.00
C8053  C     1.10576   0.97978   0.95544   0.00000  Uiso   1.00
C8054  C     0.91921   1.17182   0.77959   0.00000  Uiso   1.00
C8055  C     0.97710   1.18299   0.85493   0.00000  Uiso   1.00
H8056  H     0.99575   1.03023   0.95194   0.00000  Uiso   1.00
C8057  C     0.94756   1.20548   0.75492   0.00000  Uiso   1.00
H8058  H     0.88068   1.13643   0.79167   0.00000  Uiso   1.00
C8059  C     1.07873   1.00176   0.72872   0.00000  Uiso   1.00
C8060  C     1.00573   0.97620   0.88151   0.00000  Uiso   1.00
C8061  C     1.20597   1.14211   0.93579   0.00000  Uiso   1.00
H8062  H     0.97334   1.14061   0.96002   0.00000  Uiso   1.00
C8063  C     0.98553   0.98134   0.77723   0.00000  Uiso   1.00
C8064  C     0.97966   0.97671   0.75052   0.00000  Uiso   1.00
H8065  H     1.04961   1.18393   0.94877   0.00000  Uiso   1.00
C8066  C     0.96182   1.20480   0.84339   0.00000  Uiso   1.00
H8067  H     1.06856   1.13545   0.95340   0.00000  Uiso   1.00
C8068  C     1.11775   1.17831   0.95725   0.00000  Uiso   1.00
C8069  C     1.20635   1.11908   0.85555   0.00000  Uiso   1.00
H8070  H     0.98196   1.06831   0.72274   0.00000  Uiso   1.00
C8071  C     0.89771   1.04667   0.72405   0.00000  Uiso   1.00
O8072  O     1.08627   1.21222   0.81821   0.00000  Uiso   1.00
H8073  H     1.05273   1.07427   0.95632   0.00000  Uiso   1.00
C8074  C     0.88932   1.21241   0.89352   0.00000  Uiso   1.00
H8075  H     0.88589   1.13127   0.95198   0.00000  Uiso   1.00
C8076  C     1.20946   1.02933   0.96360   0.00000  Uiso   1.00
C8077  C     1.09053   1.19230   0.96336   0.00000  Uiso   1.00
C8078  C     1.07314   0.97837   0.71443   0.00000  Uiso   1.00
C8079  C     1.19517   1.19052   1.07542   0.00000  Uiso   1.00
N8080  N     0.89019   1.14517   1.11667   0.00000  Uiso   1.00
C8081  C     1.11021   1.02887   1.19150   0.00000  Uiso   1.00
C8082  C     0.94633   1.04117   1.02246   0.00000  Uiso   1.00
C8083  C     1.09147   1.02470   0.96506   0.00000  Uiso   1.00
H8084  H     1.11275   1.04873   1.09155   0.00000  Uiso   1.00
N8085  N     1.05227   1.12821   1.13928   0.00000  Uiso   1.00
H8086  H     0.90838   1.10831   1.20963   0.00000  Uiso   1.00
C8087  C     1.16485   1.07790   1.08047   0.00000  Uiso   1.00
C8088  C     1.18789   1.07946   1.09778   0.00000  Uiso   1.00
C8089  C     0.99879   0.98829   1.12544   0.00000  Uiso   1.00
C8090  C     1.15710   1.19795   1.10307   0.00000  Uiso   1.00
C8091  C     1.12146   1.00409   1.20180   0.00000  Uiso   1.00
C8092  C     0.92988   0.99759   1.12776   0.00000  Uiso   1.00
C8093  C     0.95274   1.12370   1.14445   0.00000  Uiso   1.00
H8094  H     0.98138   1.06160   1.00533   0.00000  Uiso   1.00
C8095  C     0.96065   0.97116   0.99828   0.00000  Uiso   1.00
C8096  C     1.14959   1.08112   1.12423   0.00000  Uiso   1.00
C8097  C     0.91366   1.03528   1.15660   0.00000  Uiso   1.00
C8098  C     0.96669   1.10103   1.05127   0.00000  Uiso   1.00
H8099  H     1.11756   1.12707   1.09962   0.00000  Uiso   1.00
H8100  H     1.08962   1.00856   1.01692   0.00000  Uiso   1.00
H8101  H     1.02003   0.98310   1.13580   0.00000  Uiso   1.00
H8102  H     1.17472   1.14789   1.18005   0.00000  Uiso   1.00
C8103  C     1.10002   1.13392   1.01660   0.00000  Uiso   1.00
C8104  C     1.20068   1.12133   1.15753   0.00000  Uiso   1.00
H8105  H     1.13865   1.02433   0.99910   0.00000  Uiso   1.00
H8106  H     1.03356   0.98822   1.08021   0.00000  Uiso   1.00
C8107  C     0.94302   1.01060   1.02326   0.00000  Uiso   1.00
H8108  H     1.01269   1.02036   1.16998   0.00000  Uiso   1.00
H8109  H     0.97635   1.18137   1.20594   0.00000  Uiso   1.00
C8110  C     0.95849   1.04860   1.04965   0.00000  Uiso   1.00
C8111  C     0.99825   1.17681   1.07068   0.00000  Uiso   1.00
H8112  H     1.08315   1.12160   1.02719   0.00000  Uiso   1.00
C8113  C     1.18537   1.11854   1.13066   0.00000  Uiso   1.00
C8114  C     0.95342   1.00950   1.16867   0.00000  Uiso   1.00
H8115  H     0.97739   0.97619   1.05804   0.00000  Uiso   1.00
H8116  H     1.16345   1.11270   1.18427   0.00000  Uiso   1.00
C8117  C     1.11299   1.07173   1.08855   0.00000  Uiso   1.00
C8118  C     1.02871   1.12923   1.13453   0.00000  Uiso   1.00
H8119  H     1.11594   1.11799   1.01194   0.00000  Uiso   1.00
O8120  O     1.12602   1.20517   1.18100   0.00000  Uiso   1.00
C8121  C     1.17963   1.08854   1.12585   0.00000  Uiso   1.00
C8122  C     1.08334   1.17677   0.99102   0.00000  Uiso   1.00
H8123  H     0.98081   1.04947   1.05094   0.00000  Uiso   1.00
C8124  C     0.98514   0.97396   1.17485   0.00000  Uiso   1.00
C8125  C     1.18197   1.12652   1.18201   0.00000  Uiso   1.00
C8126  C     1.17416   1.20218   1.12555   0.00000  Uiso   1.00
H8127  H     0.92463   1.09142   1.09163   0.00000  Uiso   1.00
C8128  C     0.90143   1.09717   1.04317   0.00000  Uiso   1.00
H8129  H     0.99718   1.18476   1.17512   0.00000  Uiso   1.00
C8130  C     1.12444   1.05319   1.19248   0.00000  Uiso   1.00
H8131  H     1.15944   0.99542   1.10078   0.00000  Uiso   1.00
O8132  O     1.19711   1.04621   1.02106   0.00000  Uiso   1.00
H8133  H     0.95493   1.11748   0.98043   0.00000  Uiso   1.00
C8134  C     0.92268   1.05967   1.01988   0.00000  Uiso   1.00
H8135  H     1.12299   0.99904   1.10657   0.00000  Uiso   1.00
H8136  H     0.94031   1.04268   1.19120   0.00000  Uiso   1.00
H8137  H     0.97446   1.10091   1.03027   0.00000  Uiso   1.00
H8138  H     1.13516   0.98026   1.07700   0.00000  Uiso   1.00
H8139  H     0.89962   1.11364   1.05901   0.00000  Uiso   1.00
H8140  H     1.01715   0.99353   0.99735   0.00000  Uiso   1.00
C8141  C     0.99754   1.18225   1.19703   0.00000  Uiso   1.00
C8142  C     1.09440   0.99161   1.00262   0.00000  Uiso   1.00
O8143  O     1.10548   0.98111   1.19926   0.00000  Uiso   1.00
C8144  C     0.98149   1.12049   1.14785   0.00000  Uiso   1.00
C8145  C     1.11746   1.20023   1.13225   0.00000  Uiso   1.00
C8146  C     0.97775   0.98769   1.07659   0.00000  Uiso   1.00
C8147  C     1.16374   1.20541   1.15137   0.00000  Uiso   1.00
C8148  C     0.93842   1.07464   1.08709   0.00000  Uiso   1.00
H8149  H     0.98557   1.00769   1.07140   0.00000  Uiso   1.00
H8150  H     0.95518   1.11982   1.05323   0.00000  Uiso   1.00
C8151  C     0.95117   0.99419   1.14524   0.00000  Uiso   1.00
C8152  C     1.11253   1.19058   1.08377   0.00000  Uiso   1.00
C8153  C     1.13912   1.08778   1.09665   0.00000  Uiso   1.00
C8154  C     0.89909   1.05501   1.00580   0.00000  Uiso   1.00
C8155  C     1.08029   1.20180   1.16127   0.00000  Uiso   1.00
H8156  H     1.11185   1.14848   1.03009   0.00000  Uiso   1.00
H8157  H     1.13949   0.97991   1.15236   0.00000  Uiso   1.00
H8158  H     1.13721   1.09225   1.13873   0.00000  Uiso   1.00
H8159  H     1.12749   1.11783   1.06619   0.00000  Uiso   1.00
C8160  C     0.98951   1.14634   1.10714   0.00000  Uiso   1.00
H8161  H     1.00733   1.16314   1.20181   0.00000  Uiso   1.00
C8162  C     1.08838   1.20883   1.21020   0.00000  Uiso   1.00
H8163  H     0.95507   1.05435   0.98162   0.00000  Uiso   1.00
H8164  H     0.94876   1.15279   0.98602   0.00000  Uiso   1.00
O8165  O     1.00835   1.15786   1.08899   0.00000  Uiso   1.00
H8166  H     1.10851   1.07515   1.06613   0.00000  Uiso   1.00
C8167  C     0.94661   1.10731   1.18893   0.00000  Uiso   1.00
H8168  H     1.06036   1.17846   0.99323   0.00000  Uiso   1.00
C8169  C     0.96688   1.04643   0.99963   0.00000  Uiso   1.00
H8170  H     0.92833   1.05571   1.09119   0.00000  Uiso   1.00
O8171  O     1.16614   1.19262   1.07571   0.00000  Uiso   1.00
C8172  C     0.93579   1.03030   1.17385   0.00000  Uiso   1.00
H8173  H     1.15140   1.13209   1.09035   0.00000  Uiso   1.00
C8174  C     0.94305   1.13926   1.12269   0.00000  Uiso   1.00
H8175  H     0.92850   0.98316   1.10952   0.00000  Uiso   1.00
H8176  H     0.93978   1.19908   1.04115   0.00000  Uiso   1.00
O8177  O     0.88991   1.02178   1.11500   0.00000  Uiso   1.00
C8178  C     0.97680   1.00164   1.18782   0.00000  Uiso   1.00
C8179  C     0.99948   1.13112   1.12961   0.00000  Uiso   1.00
H8180  H     1.16656   1.12882   1.13238   0.00000  Uiso   1.00
C8181  C     0.96124   1.15065   1.10403   0.00000  Uiso   1.00
C8182  C     0.97526   1.10381   1.19202   0.00000  Uiso   1.00
C8183  C     1.13795   1.00748   0.98367   0.00000  Uiso   1.00
H8184  H     1.02233   1.03117   0.99570   0.00000  Uiso   1.00
C8185  C     1.00825   1.01491   1.00392   0.00000  Uiso   1.00
H8186  H     1.09566   1.07883   1.10031   0.00000  Uiso   1.00
C8187  C     0.92359   0.99361   1.03562   0.00000  Uiso   1.00
N8188  N     1.06366   1.03315   1.16963   0.00000  Uiso   1.00
C8189  C     0.91399   1.14317   1.11888   0.00000  Uiso   1.00
C8190  C     0.97645   0.97402   1.14417   0.00000  Uiso   1.00
H8191  H     0.95376   1.07447   1.10260   0.00000  Uiso   1.00
O8192  O     0.89486   1.05563   1.16331   0.00000  Uiso   1.00
O8193  O     0.95089   1.16458   1.08016   0.00000  Uiso   1.00
H8194  H     0.98460   1.10132   1.06470   0.00000  Uiso   1.00
C8195  C     1.19511   1.05971   1.04497   0.00000  Uiso   1.00
C8196  C     1.13416   1.11783   1.08818   0.00000  Uiso   1.00
H8197  H     1.14405   1.05858   1.12576   0.00000  Uiso   1.00
H8198  H     0.95324   1.03302   1.06579   0.00000  Uiso   1.00
C8199  C     0.92264   1.07995   1.03964   0.00000  Uiso   1.00
C8200  C     0.96965   1.17886   1.06567   0.00000  Uiso   1.00
C8201  C     0.94824   1.07685   1.05845   0.00000  Uiso   1.00
H8202  H     1.09510   1.18673   1.00867   0.00000  Uiso   1.00
C8203  C     1.16984   1.06762   1.05521   0.00000  Uiso   1.00
H8204  H     1.14721   0.98864   0.99071   0.00000  Uiso   1.00
H8205  H     0.99264   1.04032   1.19427   0.00000  Uiso   1.00
C8206  C     0.96088   0.99980   1.00348   0.00000  Uiso   1.00
H8207  H     1.01402   1.01752   1.20773   0.00000  Uiso   1.00
H8208  H     1.00864   1.01579   1.02605   0.00000  Uiso   1.00
C8209  C     1.10792   1.00140   0.97743   0.00000  Uiso   1.00
H8210  H     1.19381   1.17463   1.03228   0.00000  Uiso   1.00
C8211  C     1.09418   1.14832   0.98908   0.00000  Uiso   1.00
H8212  H     0.89643   1.03752   0.99219   0.00000  Uiso   1.00
H8213  H     1.10608   0.97694   1.01457   0.00000  Uiso   1.00
C8214  C     0.97925   1.01999   0.99222   0.00000  Uiso   1.00
H8215  H     0.89803   1.15835   0.97413   0.00000  Uiso   1.00
C8216  C     1.13984   0.98544   1.09891   0.00000  Uiso   1.00
H8217  H     1.15297   1.06296   1.04160   0.00000  Uiso   1.00
F8218  F     1.11390   1.07691   1.18277   0.00000  Uiso   1.00
H8219  H     0.99745   1.01010   1.12280   0.00000  Uiso   1.00
H8220  H     1.07581   0.98080   0.99833   0.00000  Uiso   1.00
C8221  C     0.96191   1.19614   1.04396   0.00000  Uiso   1.00
H8222  H     1.00802   0.97140   1.17564   0.00000  Uiso   1.00
C8223  C     1.13594   1.20398   1.15437   0.00000  Uiso   1.00
C8224  C     1.08474   1.03092   1.17900   0.00000  Uiso   1.00
C8225  C     0.91059   1.01768   1.13317   0.00000  Uiso   1.00
H8226  H     1.09454   0.96635   1.15297   0.00000  Uiso   1.00
H8227  H     1.19231   1.12671   1.20138   0.00000  Uiso   1.00
H8228  H     0.95661   0.99301   1.08183   0.00000  Uiso   1.00
H8229  H     0.90901   1.00415   1.05117   0.00000  Uiso   1.00
C8230  C     1.12816   1.19756   1.10660   0.00000  Uiso   1.00
N8231  N     1.09959   1.18398   1.06458   0.00000  Uiso   1.00
C8232  C     1.00094   1.02105   1.18920   0.00000  Uiso   1.00
H8233  H     0.90414   1.12240   0.98329   0.00000  Uiso   1.00
H8234  H     1.10214   1.04329   0.96701   0.00000  Uiso   1.00
O8235  O     0.93450   1.11381   1.16415   0.00000  Uiso   1.00
C8236  C     1.09859   1.20560   1.18320   0.00000  Uiso   1.00
C8237  C     1.19706   1.07348   1.14722   0.00000  Uiso   1.00
H8238  H     1.17175   0.97195   1.14190   0.00000  Uiso   1.00
C8239  C     0.92973   1.10329   1.21178   0.00000  Uiso   1.00
O8240  O     0.99237   1.10692   1.17009   0.00000  Uiso   1.00
H8241  H     1.07252   1.02736   0.97586   0.00000  Uiso   1.00
O8242  O     1.08993   1.19965   1.13572   0.00000  Uiso   1.00
C8243  C     0.95374   1.13754   0.97036   0.00000  Uiso   1.00
C8244  C     1.01520   1.19770   1.06170   0.00000  Uiso   1.00
H8245  H     1.14315   1.11715   0.97422   0.00000  Uiso   1.00
O8246  O     1.20197   1.20622   1.12298   0.00000  Uiso   1.00
H8247  H     1.03823   1.19596   1.15242   0.00000  Uiso   1.00
H8248  H     1.19495   1.03107   1.13559   0.00000  Uiso   1.00
C8249  C     1.20687   1.04670   1.14722   0.00000  Uiso   1.00
H8250  H     1.03669   1.19891   1.07088   0.00000  Uiso   1.00
C8251  C     1.21371   1.07318   1.08867   0.00000  Uiso   1.00
C8252  C     0.99528   0.97460   1.09779   0.00000  Uiso   1.00
H8253  H     0.99309   1.20666   0.97822   0.00000  Uiso   1.00
C8254  C     1.20649   1.18096   1.05158   0.00000  Uiso   1.00
H8255  H     0.95743   1.20114   0.97817   0.00000  Uiso   1.00
H8256  H     1.05503   1.12813   0.98559   0.00000  Uiso   1.00
C8257  C     1.05224   1.20209   1.16775   0.00000  Uiso   1.00
C8258  C     1.14865   1.05364   1.20803   0.00000  Uiso   1.00
C8259  C     0.90088   1.13727   0.96709   0.00000  Uiso   1.00
C8260  C     1.04316   1.20721   1.19425   0.00000  Uiso   1.00
C8261  C     1.18044   1.21117   1.17361   0.00000  Uiso   1.00
C8262  C     1.07457   1.12955   0.97388   0.00000  Uiso   1.00
C8263  C     1.02212   0.96857   1.08314   0.00000  Uiso   1.00
C8264  C     0.92271   0.96517   1.03074   0.00000  Uiso   1.00
H8265  H     1.19749   1.12761   1.11334   0.00000  Uiso   1.00
C8266  C     0.98051   1.21196   1.03090   0.00000  Uiso   1.00
H8267  H     1.08331   1.10854   0.97358   0.00000  Uiso   1.00
H8268  H     0.88263   0.98624   1.16906   0.00000  Uiso   1.00
C8269  C     1.21095   1.09289   1.16309   0.00000  Uiso   1.00
C8270  C     1.01406   1.20715   1.20714   0.00000  Uiso   1.00
H8271  H     1.14873   1.01351   0.96486   0.00000  Uiso   1.00
C8272  C     1.21239   1.19629   1.09803   0.00000  Uiso   1.00
C8273  C     1.11928   1.15407   0.97072   0.00000  Uiso   1.00
C8274  C     1.14146   1.13751   0.96482   0.00000  Uiso   1.00
loop_
_geom_bond_atom_site_label_1
_geom_bond_atom_site_label_2
_geom_bond_distance
_geom_bond_site_symmetry_2
_ccdc_geom_bond_type
H1     C71     1.111   .     S
O2     C1987   1.372   1_545 S
O2     C2073   1.405   1_545 S
C3     C74     1.410   .     S
C3     C31     1.378   .     S
C3     O1983   1.426   1_545 S
C4     H57     1.094   .     S
C4     C78     1.541   .     S
C4     H60     1.140   .     S
C4     H2084   1.085   1_545 S
H5     C49     1.070   .     S
H6     C30     1.103   .     S
H7     C39     1.080   .     S
H8     C26     1.149   .     S
C9     C59     1.512   .     S
C9     H68     1.184   .     S
C9     H27     1.090   .     S
C9     C33     1.553   .     S
H10    C65     1.131   .     S
H11    C30     1.125   .     S
H12    C36     1.069   .     S
H13    C340    1.097   1_554 S
C14    C86     1.446   .     S
C14    N52     1.165   .     S
C15    O63     1.374   .     S
C15    C31     1.414   .     S
C15    C54     1.417   .     S
H16    C53     1.105   .     S
C17    C43     1.399   .     S
C17    C85     1.404   .     S
C17    C59     1.556   .     S
C18    H69     1.088   .     S
C18    H92     1.113   .     S
C18    H24     1.109   .     S
C18    C447    1.552   .     S
C19    C64     1.383   .     S
C19    C37     1.385   .     S
C19    C59     1.520   .     S
H20    C30     1.144   .     S
C21    H41     1.178   .     S
C21    C1987   1.385   1_545 S
C21    C2074   1.382   1_545 S
H22    C66     1.083   .     S
C23    C64     1.399   .     S
C23    O63     1.358   .     S
C23    C34     1.386   .     S
C25    C67     1.341   .     S
C25    N28     1.133   .     S
C26    C34     1.353   .     S
C26    C37     1.406   .     S
O29    C616    1.413   .     S
O29    C308    1.407   1_554 S
C30    C33     1.541   .     S
C31    C50     1.416   .     S
C32    C61     1.517   .     S
C32    C466    1.403   .     S
C32    C71     1.377   .     S
C33    C37     1.479   .     S
C33    C53     1.587   .     S
C34    O72     1.377   .     S
H35    C53     1.109   .     S
C36    H42     1.106   .     S
C36    C61     1.523   .     S
C36    H77     1.109   .     S
H38    C85     1.067   .     S
C39    H2831   1.122   .     S
C39    C447    1.574   .     S
C39    H3366   1.118   .     S
H40    C66     1.081   .     S
C43    C75     1.508   .     S
C43    C327    1.350   1_554 S
C44    H56     1.071   .     S
C44    C89     1.411   .     S
C44    C5420   1.388   1_455 S
H45    C53     1.147   .     S
H46    C91     1.061   .     S
C47    H55     1.146   .     S
C47    C78     1.630   .     S
C47    H58     1.114   .     S
C47    H51     1.181   .     S
O48    C81     1.373   .     S
O48    C119    1.373   .     S
C49    H73     1.075   .     S
C49    C59     1.555   .     S
C49    C75     1.507   .     S
C50    N79     1.167   .     S
C54    O72     1.417   .     S
C54    C67     1.392   .     S
C61    C601    1.550   .     S
C61    C2723   1.585   .     S
H62    C90     1.091   .     S
C64    H76     1.145   .     S
C65    H87     1.132   .     S
C65    H70     1.091   .     S
C65    C75     1.535   .     S
C66    C75     1.496   .     S
C66    H84     1.068   .     S
C67    C74     1.411   .     S
C71    C81     1.397   .     S
C74    O2064   1.369   1_545 S
C78    C1909   1.527   1_545 S
C78    C2074   1.551   1_545 S
C80    C81     1.401   .     S
C80    C611    1.370   .     S
C80    O117    1.367   .     S
H82    C90     1.175   .     S
C83    C90     1.501   .     S
C83    C89     1.487   .     S
C83    C2069   1.532   1_545 S
C83    C2290   1.569   1_545 S
C85    C355    1.412   1_554 S
C86    C2073   1.399   1_545 S
C86    C2279   1.390   1_545 S
H88    C91     1.083   .     S
C89    C2088   1.422   1_545 S
C90    H94     1.076   .     S
C91    H571    1.128   .     S
C91    C585    1.556   .     S
H93    C2069   1.128   1_545 S
C95    C110    1.563   .     S
C95    C96     1.545   .     S
C95    C2259   1.482   1_545 S
C95    C2260   1.534   1_545 S
C96    H130    1.111   .     S
C96    H101    1.087   .     S
C96    H114    1.031   .     S
H97    C110    1.144   .     S
H98    C112    1.063   .     S
H99    C109    1.073   .     S
O100   C2232   1.394   1_545 S
O100   C2279   1.397   1_545 S
C102   C119    1.404   .     S
C102   C103    1.433   .     S
C102   C116    1.380   .     S
C103   N106    1.130   .     S
H104   C109    1.157   .     S
H105   C109    1.120   .     S
H107   C110    1.085   .     S
H108   C110    1.114   .     S
C109   C2206   1.542   1_545 S
C111   C115    1.417   .     S
C111   O113    1.371   .     S
C111   C2246   1.418   1_545 S
C112   C2232   1.400   1_545 S
C112   C2259   1.373   1_545 S
O113   C2258   1.362   1_545 S
C115   H132    1.095   .     S
C115   C202    1.400   .     S
C116   C126    1.402   .     S
C116   F122    1.385   .     S
O117   C121    1.430   .     S
C118   H133    1.120   .     S
C118   H131    1.155   .     S
C118   H753    1.121   .     S
C118   C585    1.515   .     S
C119   C121    1.445   .     S
C120   C2258   1.401   1_545 S
C120   C2282   1.360   1_545 S
C120   C5646   1.365   1_455 S
C121   C123    1.399   .     S
C123   C126    1.441   .     S
C123   C124    1.388   .     S
C124   N750    1.187   .     S
H125   C2107   1.096   1_545 S
C126   F129    1.304   .     S
H127   C691    1.153   .     S
H128   C2290   1.134   1_545 S
H134   C691    1.113   .     S
C135   H143    1.124   .     S
C135   H149    1.102   .     S
C135   H250    1.119   .     S
C135   C172    1.506   .     S
H136   C203    1.076   .     S
H137   C203    1.144   .     S
C138   C175    1.492   .     S
C138   C220    1.560   .     S
C138   C180    1.516   .     S
C138   C178    1.585   .     S
H139   C174    1.141   .     S
C140   H227    1.105   .     S
C140   C1154   1.543   .     S
C140   H967    1.180   .     S
C140   H986    1.092   .     S
H141   C192    1.070   .     S
H142   C178    1.101   .     S
C144   C3080   1.382   .     S
C144   C184    1.400   .     S
C144   C235    1.488   .     S
H145   C255    1.121   .     S
C146   H165    1.159   .     S
C146   H182    1.124   .     S
C146   H169    1.069   .     S
C146   C157    1.541   .     S
C147   C172    1.571   .     S
C147   C148    1.351   .     S
C147   C232    1.400   .     S
C148   C238    1.374   .     S
C148   C206    1.574   .     S
H150   C183    1.163   .     S
H151   C5830   1.088   1_455 S
C152   H245    1.122   .     S
C152   C157    1.505   .     S
C152   H196    1.076   .     S
C152   C2413   1.553   1_545 S
C153   H214    1.107   .     S
C153   C235    1.547   .     S
C153   C193    1.510   .     S
C153   H176    1.156   .     S
H154   C212    1.059   .     S
H155   C203    1.101   .     S
H156   C238    1.155   .     S
C157   C222    1.564   .     S
C157   C202    1.499   .     S
H158   C179    1.114   .     S
C159   C210    1.393   .     S
C159   H3128   1.123   .     S
C159   C173    1.367   .     S
C160   C172    1.531   .     S
C160   H187    1.065   .     S
C160   H166    1.097   .     S
C160   H234    1.099   .     S
H161   C174    1.087   .     S
C162   C179    1.406   .     S
C162   O231    1.322   .     S
C162   C974    1.435   .     S
H163   C220    1.078   .     S
H164   C241    1.145   .     S
C167   H256    1.076   .     S
C167   H216    1.101   .     S
C167   C233    1.488   .     S
C167   H2485   1.107   1_545 S
H168   C180    1.046   .     S
N170   C2499   1.158   1_545 S
H171   C3221   1.115   .     S
C172   C200    1.518   .     S
C173   C193    1.533   .     S
C173   C188    1.394   .     S
C174   C225    1.508   .     S
C174   H240    1.080   .     S
C175   C198    1.379   .     S
C175   C229    1.379   .     S
H177   C869    1.116   .     S
C178   H209    1.082   .     S
C178   C206    1.514   .     S
C179   C228    1.392   .     S
C180   H191    1.097   .     S
C180   H199    1.124   .     S
H181   C2409   1.128   1_545 S
C183   C257    1.565   .     S
C183   H207    1.094   .     S
C183   C225    1.534   .     S
C184   C3201   1.344   .     S
C184   C193    1.524   .     S
H185   C222    1.043   .     S
H186   C192    1.126   .     S
C188   C233    1.517   .     S
C188   C262    1.396   .     S
C189   N213    1.149   .     S
C189   C438    1.410   .     S
H190   C200    1.083   .     S
C192   C233    1.506   .     S
C192   H223    1.163   .     S
C193   C194    1.510   .     S
C194   H205    1.064   .     S
C194   H239    1.119   .     S
C194   C233    1.463   .     S
H195   C3221   1.072   .     S
C197   C235    1.567   .     S
C197   H242    1.114   .     S
C197   H211    1.119   .     S
C197   H246    1.104   .     S
C198   C206    1.501   .     S
C198   C255    1.403   .     S
C200   C206    1.546   .     S
C200   H247    1.138   .     S
O201   C204    1.380   .     S
O201   C2321   1.432   1_545 S
C202   C2376   1.392   1_545 S
C203   C235    1.538   .     S
C204   C249    1.394   .     S
C204   C238    1.402   .     S
H208   C241    1.097   .     S
C210   O3228   1.394   .     S
C210   C2389   1.403   1_545 S
C212   C3879   1.354   .     S
C212   C969    1.393   .     S
H215   C222    1.106   .     S
C217   C975    1.366   .     S
C217   C257    1.592   .     S
C217   C228    1.385   .     S
H218   C222    1.074   .     S
H219   C220    1.110   .     S
C220   H236    1.073   .     S
H221   C5832   1.117   1_455 S
H224   C232    1.126   .     S
C225   C228    1.551   .     S
C225   C241    1.588   .     S
N226   C315    1.168   .     S
C229   C253    1.358   .     S
C229   H230    1.081   .     S
O231   C791    1.465   .     S
C232   C249    1.386   .     S
H237   C258    1.097   .     S
C241   H260    1.107   .     S
H243   C401    1.081   .     S
N244   C958    1.181   .     S
N248   C2524   1.165   1_545 S
C249   O2306   1.376   1_545 S
C251   H729    1.065   .     S
C251   C254    1.385   .     S
C251   C5620   1.442   1_455 S
O252   C283    1.410   .     S
O252   C2474   1.388   1_545 S
C253   C428    1.403   .     S
C253   O261    1.407   .     S
C254   C787    1.531   .     S
C254   C5700   1.355   1_455 S
C255   C428    1.398   .     S
C257   C930    1.585   .     S
C257   C969    1.508   .     S
C258   C787    1.523   .     S
C258   H966    1.079   .     S
C258   C5831   1.569   1_455 S
H259   C2409   1.068   1_545 S
O261   C432    1.412   .     S
C262   C2389   1.401   1_545 S
C262   H2504   1.085   1_545 S
N263   C314    1.146   .     S
C264   H324    1.131   .     S
C264   H362    1.080   .     S
C264   C400    1.528   .     S
C264   H409    1.109   .     S
C265   C309    1.378   .     S
C265   C388    1.371   .     S
C265   C315    1.404   .     S
N266   C278    1.186   .     S
C267   C434    1.368   .     S
C267   C269    1.430   .     S
C267   C416    1.395   .     S
C268   C435    1.406   .     S
C268   O351    1.344   .     S
C268   C293    1.375   .     S
C269   O393    1.401   .     S
C269   C368    1.362   .     S
O270   C439    1.363   .     S
O270   C329    1.427   .     S
C271   C357    1.378   .     S
C271   C310    1.376   .     S
C271   C343    1.493   .     S
O272   C325    1.342   .     S
O272   C395    1.374   .     S
N273   C361    1.177   .     S
H274   C326    1.163   .     S
C275   C348    1.439   .     S
C275   C410    1.394   .     S
C275   O422    1.385   .     S
C276   C303    1.556   .     S
C276   C365    1.491   .     S
C276   C332    1.509   .     S
C276   C364    1.546   .     S
H277   C345    1.146   .     S
C278   C437    1.383   .     S
C279   H3337   1.117   .     S
C279   C319    1.449   .     S
C279   C3338   1.351   .     S
C280   C396    1.551   .     S
C280   C426    1.380   .     S
C280   C2657   1.384   1_545 S
O281   C323    1.383   .     S
O281   C333    1.396   .     S
C282   H336    1.128   .     S
C282   C392    1.347   .     S
C282   C2589   1.392   1_545 S
C283   C302    1.425   .     S
C283   C438    1.351   .     S
C284   C329    1.365   .     S
C284   H297    1.066   .     S
C284   C338    1.389   .     S
C285   C354    1.544   .     S
C285   C364    1.516   .     S
C285   C373    1.486   .     S
C285   C360    1.536   .     S
H286   C386    1.103   .     S
C287   O413    1.404   .     S
C287   C401    1.413   .     S
C287   C328    1.426   .     S
H288   C345    1.083   .     S
H289   C399    1.119   .     S
C290   C390    1.366   .     S
C290   C375    1.423   .     S
C290   H5904   1.136   1_455 S
C291   O3336   1.422   .     S
C291   C3315   1.360   .     S
C291   C2680   1.388   1_545 S
H292   C304    1.073   .     S
C293   O393    1.454   .     S
C293   C381    1.416   .     S
C294   C322    1.418   .     S
C294   O391    1.417   .     S
C294   C410    1.412   .     S
N295   C378    1.165   .     S
H296   C358    1.173   .     S
H298   C430    1.117   .     S
C299   C415    1.386   .     S
C299   C323    1.372   .     S
C299   H383    1.135   .     S
C300   C382    1.363   .     S
C300   C401    1.372   .     S
C300   C1154   1.498   .     S
H301   C386    1.094   .     S
C302   C380    1.383   .     S
C302   O2683   1.376   1_545 S
C303   C373    1.381   .     S
C303   C405    1.405   .     S
C304   H385    1.068   .     S
C304   C407    1.514   .     S
C304   C412    1.562   .     S
C305   C395    1.399   .     S
C305   O420    1.432   .     S
C305   C2706   1.396   1_545 S
H306   C354    1.083   .     S
O307   C316    1.360   .     S
O307   C5992   1.391   1_455 S
C308   C405    1.382   .     S
C308   C421    1.409   .     S
C308   O29     1.407   1_556 S
C309   O413    1.452   .     S
C309   C347    1.370   .     S
C310   C325    1.415   .     S
C310   H377    1.154   .     S
C311   C333    1.363   .     S
C311   C347    1.423   .     S
C311   C314    1.373   .     S
O312   C331    1.399   .     S
O312   C428    1.387   .     S
H313   C320    1.087   .     S
C316   C403    1.378   .     S
C316   C416    1.407   .     S
C317   H342    1.081   .     S
C317   H398    1.105   .     S
C317   C343    1.464   .     S
C317   C407    1.589   .     S
H318   C327    1.107   .     S
C319   C323    1.449   .     S
C319   O397    1.413   .     S
C320   C412    1.501   .     S
C320   H5979   1.141   1_455 S
C320   H5990   1.145   1_455 S
H321   C360    1.117   .     S
C322   C404    1.407   .     S
C322   O330    1.390   .     S
C325   C353    1.480   .     S
C326   H359    1.097   .     S
C326   H376    1.083   .     S
C326   C343    1.553   .     S
C327   C406    1.392   .     S
C327   C43     1.350   1_556 S
C328   C358    1.390   .     S
C328   O379    1.349   .     S
C329   C375    1.442   .     S
O330   C392    1.411   .     S
C331   C380    1.415   .     S
C331   C432    1.423   .     S
C332   H349    1.149   .     S
C332   C400    1.514   .     S
C332   H394    1.156   .     S
C333   C388    1.419   .     S
N334   C402    1.162   .     S
H335   C386    1.166   .     S
O337   C369    1.388   .     S
O337   C2583   1.423   1_545 S
C338   C407    1.559   .     S
C338   C390    1.397   .     S
N339   C346    1.152   .     S
C340   H423    1.102   .     S
C340   H344    1.131   .     S
C340   C400    1.582   .     S
C340   H13     1.097   1_556 S
H341   C364    1.148   .     S
C343   C345    1.559   .     S
C345   H356    1.084   .     S
C346   C370    1.449   .     S
C347   O379    1.402   .     S
C348   O389    1.428   .     S
C348   C404    1.417   .     S
H350   C364    1.161   .     S
O351   C368    1.372   .     S
H352   C360    1.091   .     S
C353   C399    1.412   .     S
C353   O420    1.354   .     S
C354   H371    1.094   .     S
C354   H384    1.070   .     S
C355   O422    1.392   .     S
C355   C406    1.364   .     S
C355   C85     1.412   1_556 S
C357   C407    1.503   .     S
C357   C399    1.397   .     S
C358   C382    1.386   .     S
C360   H363    1.078   .     S
C361   C403    1.411   .     S
C365   C374    1.384   .     S
C365   C366    1.411   .     S
C366   H424    1.114   .     S
C366   C1079   1.383   .     S
C367   H372    1.128   .     S
C367   C373    1.400   .     S
C367   C421    1.405   .     S
C368   C403    1.382   .     S
C369   C370    1.356   .     S
C369   C2574   1.447   1_545 S
C370   C395    1.334   .     S
C374   C400    1.523   .     S
C374   C430    1.380   .     S
C375   O5785   1.417   1_455 S
C378   C404    1.454   .     S
C380   C425    1.395   .     S
C381   C387    1.431   .     S
C381   H417    1.124   .     S
C382   C1150   1.486   .     S
C386   C412    1.462   .     S
C387   C1150   1.557   .     S
C387   C1104   1.386   .     S
C388   O397    1.366   .     S
O389   C406    1.389   .     S
C390   C412    1.543   .     S
O391   C414    1.366   .     S
C392   C414    1.396   .     S
C396   C427    1.541   .     S
C396   C3246   1.541   .     S
C396   C415    1.532   .     S
C402   C410    1.397   .     S
C405   H411    1.120   .     S
C408   O3336   1.404   .     S
C408   C426    1.432   .     S
C408   C2604   1.421   1_545 S
C414   C2586   1.396   1_545 S
C415   C3338   1.379   .     S
C416   O5895   1.376   1_455 S
H418   C1044   1.061   .     S
H419   C5947   1.060   1_455 S
C421   O433    1.362   .     S
C425   N2639   1.186   1_545 S
C426   H3335   1.201   .     S
C427   H429    1.045   .     S
C427   H436    1.034   .     S
C427   C2690   1.500   1_545 S
C430   C1146   1.403   .     S
H431   C2699   1.132   1_545 S
C432   C438    1.384   .     S
O433   C1136   1.441   .     S
C434   N5999   1.206   1_455 S
C435   H1023   1.118   .     S
C435   C1104   1.403   .     S
C437   C439    1.423   .     S
C437   C5905   1.419   1_455 S
C439   C5801   1.452   1_455 S
C440   C544    1.441   .     S
C440   C543    1.432   .     S
C440   C559    1.345   .     S
C441   C508    1.473   .     S
C441   C600    1.555   .     S
C441   C513    1.528   .     S
C441   C517    1.482   .     S
H442   C601    1.112   .     S
H443   C446    1.127   .     S
C444   C496    1.363   .     S
C444   C470    1.356   .     S
C444   H522    1.135   .     S
C445   H499    1.102   .     S
C445   C561    1.484   .     S
C445   H479    1.146   .     S
C445   C526    1.555   .     S
C446   H486    1.099   .     S
C446   C584    1.524   .     S
C446   H471    1.048   .     S
C447   C600    1.518   .     S
C447   C610    1.545   .     S
H448   C575    1.121   .     S
H449   C602    1.140   .     S
C450   C464    1.382   .     S
C450   O596    1.374   .     S
C450   C1151   1.379   1_554 S
C451   C494    1.393   .     S
C451   C565    1.408   .     S
C451   O536    1.409   .     S
H452   C605    1.079   .     S
O453   C505    1.391   .     S
O453   C3515   1.393   .     S
O454   C545    1.354   .     S
O454   C576    1.371   .     S
H455   C528    1.107   .     S
H456   C554    1.095   .     S
H457   C588    1.078   .     S
H458   C511    1.107   .     S
H459   C525    1.106   .     S
C460   C585    1.584   .     S
C460   C762    1.392   .     S
C460   C490    1.419   .     S
H461   C534    1.077   .     S
H462   C600    1.036   .     S
H463   C534    1.145   .     S
C464   C616    1.352   .     S
C464   C477    1.483   .     S
O465   C533    1.447   .     S
O465   C494    1.400   .     S
C466   C611    1.412   .     S
C466   C500    1.520   .     S
C467   C578    1.403   .     S
C467   C595    1.396   .     S
C467   O1077   1.391   1_554 S
C468   H586    1.128   .     S
C468   C503    1.383   .     S
C468   C572    1.365   .     S
C469   H519    1.115   .     S
C469   C509    1.534   .     S
C469   H619    1.100   .     S
C469   H603    1.120   .     S
C470   C529    1.561   .     S
C470   C506    1.369   .     S
C472   C529    1.490   .     S
C472   H591    1.181   .     S
C472   H550    1.110   .     S
C472   C510    1.535   .     S
C473   C562    1.344   .     S
C473   C508    1.412   .     S
C473   C584    1.541   .     S
H474   C521    1.128   .     S
H475   C1323   1.156   .     S
H476   C514    1.090   .     S
C477   N577    1.163   .     S
H478   C488    1.074   .     S
C480   C481    1.418   .     S
C480   C505    1.388   .     S
C480   H563    1.089   .     S
C481   C582    1.371   .     S
C481   C570    1.535   .     S
C482   C505    1.390   .     S
C482   C487    1.381   .     S
C482   O620    1.407   .     S
H483   C488    1.127   .     S
C484   N501    1.162   .     S
C484   C565    1.382   .     S
H485   C6118   1.084   1_455 S
C487   C582    1.406   .     S
C487   H1255   1.097   .     S
C488   H560    1.105   .     S
C488   C509    1.509   .     S
H489   C492    1.113   .     S
C490   C526    1.523   .     S
C490   C748    1.385   .     S
H491   C504    1.124   .     S
C492   C506    1.393   .     S
C492   C592    1.385   .     S
N493   C544    1.151   .     S
C494   C551    1.361   .     S
H495   C521    1.067   .     S
C496   C592    1.451   .     S
C496   O6057   1.347   1_455 S
C497   C533    1.364   .     S
C497   H3489   1.092   .     S
C497   C1179   1.369   .     S
C498   C548    1.442   .     S
C498   H537    1.132   .     S
C498   C508    1.355   .     S
C500   C3510   1.530   .     S
C500   C503    1.548   .     S
C500   C601    1.524   .     S
H502   C504    1.064   .     S
C503   C583    1.361   .     S
C504   H581    1.075   .     S
C504   C520    1.523   .     S
C506   C520    1.459   .     S
C507   O536    1.389   .     S
C507   C533    1.405   .     S
C507   C1254   1.398   .     S
C509   C555    1.650   .     S
C509   C554    1.524   .     S
C510   C599    1.537   .     S
C510   C511    1.568   .     S
C510   C587    1.535   .     S
C511   H618    1.098   .     S
C511   H1143   1.239   1_554 S
H512   C601    1.092   .     S
C513   C584    1.528   .     S
C513   H574    1.087   .     S
C513   H604    1.104   .     S
C514   C518    1.351   .     S
C514   C578    1.385   .     S
H515   C521    1.138   .     S
H516   C588    1.121   .     S
C517   C546    1.388   .     S
C517   C610    1.363   .     S
C518   C529    1.508   .     S
C518   C587    1.401   .     S
C520   C521    1.575   .     S
C520   C525    1.548   .     S
C523   O541    1.398   .     S
C523   C567    1.383   .     S
C523   C551    1.376   .     S
H524   C546    1.104   .     S
C525   H527    1.077   .     S
C525   C529    1.529   .     S
C526   C652    1.549   .     S
C526   C621    1.541   .     S
C528   C617    1.369   .     S
C528   C566    1.358   .     S
H530   C600    1.166   .     S
H531   C602    1.098   .     S
H532   C605    1.086   .     S
C534   C561    1.497   .     S
C534   H590    1.069   .     S
C535   C625    1.363   .     S
C535   C652    1.406   .     S
C535   C561    1.532   .     S
O538   C566    1.361   .     S
O538   C543    1.386   .     S
O539   C559    1.411   .     S
O539   C557    1.408   .     S
H540   C621    1.107   .     S
O541   C548    1.381   .     S
H542   C575    1.103   .     S
C543   C576    1.396   .     S
C545   C566    1.417   .     S
C545   C558    1.403   .     S
C546   C3411   1.375   .     S
C547   O549    1.376   .     S
C547   C548    1.442   .     S
C547   C562    1.406   .     S
O549   C567    1.400   .     S
C551   C594    1.375   .     S
H552   C562    1.098   .     S
C553   C580    1.367   .     S
C553   N564    1.143   .     S
C554   H614    1.095   .     S
C554   C570    1.532   .     S
C555   C613    1.438   .     S
C555   C1165   1.382   1_554 S
O556   C572    1.375   .     S
O556   C573    1.402   .     S
C557   C589    1.411   .     S
C557   C572    1.383   .     S
C558   C623    1.428   .     S
C558   H579    1.098   .     S
C559   C573    1.381   .     S
C561   C602    1.558   .     S
C565   C567    1.384   .     S
O568   C592    1.398   .     S
O568   C6069   1.443   1_455 S
H569   C621    1.076   .     S
C570   C615    1.589   .     S
C570   C613    1.520   .     S
C573   C580    1.382   .     S
C575   C584    1.516   .     S
C575   H1167   1.098   1_554 S
C576   C580    1.392   .     S
C578   O596    1.345   .     S
C582   C1245   1.518   .     S
C583   C3375   1.564   .     S
C583   C589    1.357   .     S
C585   C621    1.512   .     S
C587   C595    1.373   .     S
C588   H598    1.110   .     S
C588   C6174   1.490   1_455 S
C589   H3457   1.099   .     S
H593   C602    1.141   .     S
C594   N3431   1.177   .     S
C595   H1096   1.071   1_554 S
H597   C599    1.090   .     S
C599   H607    1.105   .     S
C599   H1163   1.115   1_554 S
C605   H612    1.059   .     S
C605   C606    1.518   .     S
C606   C623    1.565   .     S
C606   C1175   1.540   .     S
C606   C1190   1.532   .     S
H608   C611    1.151   .     S
H609   C625    1.132   .     S
C610   C3470   1.373   .     S
C613   C1158   1.395   1_554 S
C615   C1245   1.549   .     S
C615   H626    1.123   .     S
C615   H1148   1.065   1_554 S
C616   C1136   1.441   1_554 S
C617   C1252   1.522   .     S
C617   C623    1.382   .     S
O620   C3397   1.401   .     S
H622   C1175   1.090   .     S
N624   C6145   1.162   1_455 S
C625   C676    1.399   .     S
H627   C6173   1.109   1_455 S
C628   C711    1.425   .     S
C628   C692    1.389   .     S
C628   O731    1.400   .     S
N629   C715    1.146   .     S
C630   H681    1.123   .     S
C630   C667    1.370   .     S
C630   C658    1.408   .     S
C631   O698    1.411   .     S
C631   C684    1.430   .     S
C631   C674    1.361   .     S
H632   C1680   1.126   .     S
H633   C659    1.090   .     S
O634   C676    1.349   .     S
O634   C723    1.395   .     S
C635   C669    1.372   .     S
C635   C680    1.430   .     S
C635   O718    1.371   .     S
C636   C673    1.554   .     S
C636   C3673   1.555   .     S
C636   C649    1.501   .     S
C636   C703    1.531   .     S
H637   C655    1.121   .     S
C638   N689    1.185   .     S
C638   C674    1.391   .     S
H639   C686    1.113   .     S
C640   H657    1.081   .     S
C640   C1438   1.401   .     S
C640   C6362   1.378   1_455 S
H641   C726    1.068   .     S
N642   C660    1.144   .     S
C643   C696    1.420   .     S
C643   N714    1.165   .     S
H644   C691    1.109   .     S
C645   O749    1.405   .     S
C645   C702    1.423   .     S
C645   C701    1.408   .     S
C646   C818    1.395   .     S
C646   C751    1.412   .     S
C646   C706    1.528   .     S
C647   C656    1.370   .     S
C647   C658    1.401   .     S
C647   C6343   1.479   1_455 S
O648   C737    1.368   .     S
O648   C720    1.413   .     S
C649   C712    1.388   .     S
C649   C713    1.397   .     S
H650   C6239   1.084   1_455 S
H651   C655    1.079   .     S
C652   C690    1.372   .     S
H653   C654    1.130   .     S
C654   H761    1.133   .     S
C654   C706    1.564   .     S
C654   C865    1.526   .     S
C655   C740    1.640   .     S
C655   H728    1.092   .     S
C656   C705    1.390   .     S
C656   H678    1.142   .     S
C658   C6336   1.466   1_455 S
C659   C706    1.467   .     S
C659   H716    1.098   .     S
C659   H671    1.093   .     S
C660   C692    1.463   .     S
O661   C663    1.375   .     S
O661   C683    1.377   .     S
O662   C684    1.350   .     S
O662   C735    1.360   .     S
C663   C1508   1.428   .     S
C663   C724    1.395   .     S
H664   C726    1.139   .     S
O665   C711    1.424   .     S
O665   C687    1.402   .     S
H666   C694    1.067   .     S
C667   O670    1.356   .     S
C667   C705    1.383   .     S
H668   C844    1.081   .     S
C669   O670    1.450   .     S
C669   C675    1.382   .     S
H672   C673    1.106   .     S
C673   H693    1.076   .     S
C673   H743    1.114   .     S
C674   C720    1.415   .     S
C675   C683    1.373   .     S
C675   C715    1.441   .     S
C676   C737    1.402   .     S
C677   C702    1.395   .     S
C677   C3626   1.383   .     S
C677   O3709   1.423   .     S
H679   C6239   1.056   1_455 S
C680   C755    1.381   .     S
C680   C756    1.370   .     S
C682   C751    1.390   .     S
C682   O704    1.385   .     S
C682   C889    1.399   .     S
C683   C755    1.428   .     S
C684   C696    1.375   .     S
C685   C767    1.402   .     S
C685   C711    1.386   .     S
C685   C742    1.390   .     S
C686   H695    1.114   .     S
C686   C739    1.526   .     S
C686   C740    1.559   .     S
C687   C736    1.441   .     S
C687   C713    1.415   .     S
H688   C745    1.116   .     S
C690   C737    1.331   .     S
C690   H722    1.073   .     S
C691   C740    1.549   .     S
C692   C708    1.380   .     S
C694   H1485   1.101   .     S
C694   H1374   1.067   .     S
C694   C1748   1.476   .     S
C696   C723    1.420   .     S
H697   C748    1.084   .     S
O698   C709    1.400   .     S
H699   C732    1.146   .     S
H700   C713    1.092   .     S
C701   C752    1.382   .     S
C701   O760    1.332   .     S
C702   C719    1.385   .     S
C703   H727    1.148   .     S
C703   H725    1.174   .     S
C703   C739    1.567   .     S
O704   C794    1.368   .     S
C705   O718    1.344   .     S
C706   C726    1.545   .     S
N707   C719    1.168   .     S
C708   O1406   1.403   .     S
C708   C767    1.379   .     S
C709   C735    1.457   .     S
C709   C745    1.377   .     S
C710   O3714   1.368   .     S
C710   C733    1.360   .     S
C710   C3531   1.439   .     S
C712   C732    1.360   .     S
C712   C739    1.540   .     S
C717   O749    1.407   .     S
C717   C744    1.438   .     S
C717   C748    1.423   .     S
C720   C723    1.394   .     S
C721   C740    1.505   .     S
C721   C3651   1.412   .     S
C721   C765    1.416   .     S
C724   C1472   1.401   .     S
C724   H741    1.079   .     S
C726   H754    1.081   .     S
H730   C751    1.072   .     S
O731   C736    1.382   .     S
C732   C736    1.382   .     S
C733   C768    1.392   .     S
C733   H734    1.089   .     S
C735   C6357   1.410   1_455 S
H738   C758    1.067   .     S
C739   C765    1.534   .     S
C742   N764    1.133   .     S
C744   O760    1.389   .     S
C744   C762    1.369   .     S
C745   C6312   1.371   1_455 S
H746   C6364   1.088   1_455 S
H747   C954    1.080   .     S
C752   C3626   1.390   .     S
C752   C3687   1.376   .     S
C755   O1539   1.416   .     S
C756   N1394   1.184   .     S
N757   C968    1.171   .     S
C758   H759    1.093   .     S
C758   H988    1.085   .     S
C758   C964    1.516   .     S
C762   H763    1.051   .     S
C765   C3600   1.404   .     S
C766   O899    1.359   .     S
C766   C1402   1.350   .     S
C766   C1381   1.436   .     S
C767   O1362   1.405   .     S
C768   C927    1.517   .     S
C768   C888    1.378   .     S
H769   C1460   1.117   .     S
N770   C773    1.156   .     S
C771   C954    1.392   .     S
C771   C865    1.538   .     S
C771   C804    1.365   .     S
C772   C824    1.387   .     S
C772   C843    1.391   .     S
C772   C821    1.554   .     S
C773   C837    1.380   .     S
C774   C927    1.552   .     S
C774   C807    1.539   .     S
C774   H795    1.119   .     S
C774   H877    1.101   .     S
H775   C929    1.164   .     S
H776   C872    1.074   .     S
H777   C852    1.118   .     S
H778   C833    1.053   .     S
C779   C950    1.357   .     S
C779   C1095   1.377   .     S
C779   O1010   1.474   .     S
H780   C782    1.148   .     S
H781   C844    1.074   .     S
C782   C850    1.405   .     S
C782   C804    1.397   .     S
C783   C789    1.526   .     S
C783   C880    1.539   .     S
C783   H793    1.094   .     S
C783   H931    1.096   .     S
H784   C788    1.186   .     S
H785   C872    1.071   .     S
C786   C835    1.427   .     S
C786   C838    1.421   .     S
C786   H811    1.144   .     S
C787   C977    1.580   .     S
C787   C869    1.551   .     S
C788   C948    1.486   .     S
C788   H862    1.058   .     S
C788   H814    1.106   .     S
C789   C815    1.482   .     S
C789   C846    1.524   .     S
C789   C6474   1.468   1_455 S
H790   C845    1.114   .     S
C791   C928    1.371   .     S
C791   C819    1.384   .     S
C792   C801    1.423   .     S
C792   C890    1.428   .     S
C792   C958    1.402   .     S
C794   C945    1.400   .     S
C794   C951    1.379   .     S
H796   C896    1.107   .     S
C797   C821    1.489   .     S
C797   C864    1.512   .     S
C797   H972    1.130   .     S
C797   H971    1.064   .     S
H798   C808    1.078   .     S
C799   O894    1.419   .     S
C799   C882    1.422   .     S
C799   C847    1.369   .     S
H800   C920    1.081   .     S
C801   C854    1.413   .     S
C801   O868    1.422   .     S
H802   C869    1.138   .     S
H803   C922    1.061   .     S
C804   C934    1.482   .     S
C805   O891    1.389   .     S
C805   C831    1.388   .     S
C805   C906    1.377   .     S
H806   C808    1.111   .     S
C807   C888    1.536   .     S
C807   C922    1.527   .     S
C807   C929    1.550   .     S
C808   C934    1.546   .     S
C808   H813    1.103   .     S
C809   C836    1.356   .     S
C809   H885    1.113   .     S
C809   C839    1.357   .     S
H810   C879    1.074   .     S
O812   C858    1.440   .     S
O812   C849    1.382   .     S
C815   C859    1.352   .     S
C815   C6420   1.410   1_455 S
C816   H946    1.137   .     S
C816   C964    1.534   .     S
C816   H908    1.099   .     S
C816   H861    1.024   .     S
H817   C843    1.080   .     S
C818   C865    1.527   .     S
C818   C832    1.392   .     S
C819   O828    1.404   .     S
C819   C951    1.412   .     S
H820   C833    1.161   .     S
C821   C910    1.531   .     S
C821   C833    1.538   .     S
C822   C879    1.396   .     S
C822   C904    1.433   .     S
C822   O868    1.406   .     S
C823   C928    1.358   .     S
C823   N957    1.129   .     S
C824   C864    1.549   .     S
C824   C924    1.382   .     S
H825   C929    1.091   .     S
C826   C873    1.398   .     S
C826   O907    1.375   .     S
C826   C843    1.378   .     S
H827   C965    1.097   .     S
O828   C974    1.359   .     S
C829   H905    1.142   .     S
C829   C3877   1.445   .     S
C829   C840    1.348   .     S
C830   C903    1.385   .     S
C830   O926    1.432   .     S
C830   C1687   1.442   .     S
C831   C851    1.376   .     S
C831   C936    1.368   .     S
C832   H913    1.031   .     S
C832   C889    1.391   .     S
C833   H848    1.094   .     S
H834   C1018   1.110   .     S
C835   C839    1.407   .     S
C835   O959    1.421   .     S
C836   C838    1.409   .     S
C836   C927    1.584   .     S
C837   C884    1.424   .     S
C837   C854    1.396   .     S
C838   C964    1.520   .     S
C839   O899    1.393   .     S
C840   C969    1.425   .     S
C840   C948    1.499   .     S
H841   C903    1.127   .     S
C842   C871    1.367   .     S
C842   N875    1.177   .     S
C844   C964    1.578   .     S
C844   C927    1.519   .     S
C845   H1142   1.045   .     S
C845   H980    1.129   .     S
C845   C880    1.487   .     S
C846   C857    1.383   .     S
C846   C878    1.379   .     S
C847   C895    1.381   .     S
C847   H902    1.134   .     S
C849   C960    1.438   .     S
C849   C859    1.378   .     S
C850   C978    1.397   .     S
C850   O6469   1.376   1_455 S
C851   N984    1.195   .     S
C852   C867    1.398   .     S
C852   C882    1.372   .     S
C853   C860    1.498   .     S
C853   C896    1.371   .     S
C853   O891    1.397   .     S
C854   O915    1.385   .     S
C855   O907    1.399   .     S
C855   C863    1.433   .     S
C855   C950    1.374   .     S
C856   H901    1.070   .     S
C856   H870    1.082   .     S
C856   C865    1.616   .     S
C856   C934    1.502   .     S
C857   H897    1.124   .     S
C857   C904    1.402   .     S
C858   C887    1.397   .     S
C858   C916    1.382   .     S
C859   H932    1.071   .     S
C860   O874    1.345   .     S
C860   C963    1.390   .     S
C863   C1139   1.408   .     S
C863   O909    1.394   .     S
C864   C952    1.547   .     S
C864   C1647   1.530   .     S
H866   C910    1.109   .     S
C867   C895    1.325   .     S
C867   C933    1.550   .     S
C869   H970    1.113   .     S
C871   C961    1.364   .     S
C871   C914    1.395   .     S
C872   C925    1.546   .     S
C872   H956    1.099   .     S
C873   C924    1.387   .     S
C873   O909    1.386   .     S
O874   C906    1.410   .     S
H876   C920    1.080   .     S
C878   C879    1.336   .     S
C878   C880    1.530   .     S
C880   C965    1.577   .     S
H881   C981    1.071   .     S
C882   O886    1.409   .     S
O883   C945    1.459   .     S
O883   C889    1.405   .     S
C884   O886    1.410   .     S
C884   C890    1.385   .     S
C887   C1722   1.393   .     S
C887   O953    1.404   .     S
C888   C3881   1.384   .     S
C890   O894    1.426   .     S
H892   C5830   1.104   1_455 S
H893   C910    1.107   .     S
C895   C925    1.607   .     S
C896   C911    1.385   .     S
C898   N917    1.177   .     S
C898   C950    1.371   .     S
H900   C924    1.119   .     S
C903   C952    1.356   .     S
C904   O915    1.386   .     S
C906   C1732   1.378   .     S
C910   H938    1.082   .     S
C911   C987    1.395   .     S
C911   C933    1.499   .     S
C912   H921    1.115   .     S
C912   H935    1.077   .     S
C912   C948    1.564   .     S
C912   H918    1.064   .     S
C914   C1636   1.405   .     S
C914   O976    1.394   .     S
C916   C940    1.441   .     S
C916   C1626   1.377   .     S
H919   C949    1.082   .     S
C920   C934    1.536   .     S
C920   H944    1.130   .     S
C922   H955    1.141   .     S
C922   H3880   1.107   .     S
H923   C930    1.106   .     S
C925   C981    1.508   .     S
C925   C1135   1.623   .     S
O926   C961    1.405   .     S
C928   C945    1.389   .     S
C929   H942    1.150   .     S
C930   C948    1.511   .     S
C930   H979    1.129   .     S
C933   C981    1.519   .     S
C933   C1022   1.525   .     S
C936   O1743   1.376   .     S
C936   C1568   1.368   .     S
H937   C949    1.097   .     S
H939   C975    1.101   .     S
C940   N947    1.155   .     S
H941   C949    1.123   .     S
H943   C977    1.134   .     S
C949   C1748   1.521   .     S
C951   C968    1.389   .     S
C952   C1615   1.386   .     S
O953   C960    1.363   .     S
C954   C978    1.394   .     S
O959   C1402   1.430   .     S
C960   C6399   1.416   1_455 S
C961   C1689   1.434   .     S
H962   C977    1.103   .     S
C963   H1097   1.109   .     S
C963   C987    1.406   .     S
C965   H6501   1.122   1_455 S
C965   H6546   1.111   1_455 S
H973   C1680   1.094   .     S
C974   C975    1.387   .     S
O976   C6421   1.408   1_455 S
C977   H6537   1.082   1_455 S
C978   O6459   1.395   1_455 S
C981   H1013   1.064   .     S
H982   C1018   1.129   .     S
H983   C1021   1.112   .     S
H985   C6474   1.200   1_455 S
C987   C1132   1.559   .     S
C989   H1075   1.127   .     S
C989   C1070   1.371   .     S
C989   C1099   1.407   .     S
C990   C1092   1.529   .     S
C990   C1086   1.539   .     S
C990   C1070   1.487   .     S
C990   C1062   1.502   .     S
C991   C1035   1.365   .     S
C991   O1080   1.378   .     S
C991   C1125   1.435   .     S
H992   C1030   1.042   .     S
C993   C1063   1.520   .     S
C993   C4024   1.529   .     S
C993   C1147   1.508   .     S
C993   C1072   1.525   .     S
C994   C1026   1.426   .     S
C994   C1016   1.423   .     S
C994   O1010   1.371   .     S
N995   C1078   1.158   .     S
H996   C1076   1.081   .     S
C997   H1090   1.081   .     S
C997   C1755   1.517   .     S
C997   H1124   1.096   .     S
C997   C1008   1.531   .     S
C998   C1042   1.413   .     S
C998   O1050   1.394   .     S
C998   C1073   1.398   .     S
C999   C1099   1.418   .     S
C999   O1050   1.417   .     S
C999   C1031   1.414   .     S
H1000  C1016   1.078   .     S
H1001  C1065   1.089   .     S
N1002  C1058   1.155   .     S
H1003  C1069   1.093   .     S
C1004  H1027   1.082   .     S
C1004  H1102   1.097   .     S
C1004  C1129   1.511   .     S
C1004  H1109   1.093   .     S
H1005  C1156   1.080   .     S
H1006  C1053   1.176   .     S
H1007  C1054   1.067   .     S
C1008  C1069   1.489   .     S
C1008  C1053   1.553   .     S
C1008  C1108   1.495   .     S
H1009  C1135   1.127   .     S
C1011  C1093   1.395   .     S
C1011  O1112   1.419   .     S
C1011  C1057   1.356   .     S
C1012  C1062   1.401   .     S
C1012  C1074   1.482   .     S
C1012  C1016   1.419   .     S
C1014  H1032   1.099   .     S
C1014  C1040   1.555   .     S
C1014  H3902   1.128   .     S
C1014  H1126   1.137   .     S
C1015  C1087   1.500   .     S
C1015  C1070   1.361   .     S
C1015  C1031   1.426   .     S
H1017  C1022   1.073   .     S
C1018  C1154   1.485   .     S
C1018  H1155   1.189   .     S
C1019  C1062   1.369   .     S
C1019  H1047   1.123   .     S
C1019  C1026   1.437   .     S
H1020  C1053   1.144   .     S
C1021  H1066   1.096   .     S
C1021  H1127   1.054   .     S
C1021  C1132   1.537   .     S
C1022  C1132   1.516   .     S
C1022  H1029   1.061   .     S
H1024  C1065   1.110   .     S
H1025  C1101   1.166   .     S
C1026  O1105   1.409   .     S
C1028  C1040   1.513   .     S
C1028  C1118   1.360   .     S
C1028  C1063   1.379   .     S
C1030  C1875   1.411   .     S
C1030  C1901   1.391   .     S
C1031  H1046   1.120   .     S
N1033  C1068   1.149   .     S
C1034  H1055   1.191   .     S
C1034  C1087   1.503   .     S
C1034  H1133   1.154   .     S
C1034  H6708   1.099   1_455 S
C1035  C1057   1.379   .     S
C1035  O1061   1.385   .     S
H1036  C1145   1.121   .     S
H1037  C1092   1.093   .     S
H1038  C1114   1.080   .     S
O1039  C1110   1.418   .     S
O1039  C1107   1.373   .     S
C1040  C4024   1.553   .     S
C1040  C1156   1.507   .     S
N1041  C1123   1.153   .     S
C1042  C1110   1.402   .     S
C1042  C1123   1.425   .     S
C1043  O1088   1.322   .     S
C1043  C1118   1.373   .     S
C1043  C1107   1.368   .     S
C1044  H1140   1.104   .     S
C1044  C1154   1.468   .     S
C1044  C1150   1.492   .     S
O1045  C1093   1.387   .     S
O1045  C1100   1.435   .     S
N1048  C1113   1.190   .     S
H1049  C1092   1.091   .     S
H1051  C1156   1.130   .     S
O1052  C1099   1.415   .     S
O1052  C1073   1.387   .     S
C1053  H1117   1.110   .     S
C1054  C1860   1.386   .     S
C1054  C1152   1.398   .     S
C1056  O1112   1.376   .     S
C1056  C1165   1.405   .     S
C1056  C1100   1.428   .     S
C1057  C1078   1.409   .     S
C1058  C1091   1.448   .     S
C1059  C1063   1.393   .     S
C1059  C1107   1.389   .     S
C1059  H1103   1.148   .     S
O1060  C1152   1.399   .     S
O1060  C3929   1.414   .     S
O1061  C1079   1.332   .     S
N1064  C1106   1.164   .     S
C1065  C1779   1.568   .     S
C1065  H1131   1.139   .     S
H1067  C1101   1.101   .     S
C1068  C1125   1.427   .     S
C1069  H1081   1.146   .     S
C1069  H1115   1.110   .     S
H1071  C1114   1.091   .     S
C1072  C3934   1.513   .     S
C1072  H1141   1.108   .     S
C1072  H4059   1.164   .     S
C1073  C1111   1.404   .     S
C1074  C1128   1.505   .     S
C1074  C1122   1.518   .     S
C1074  C1092   1.484   .     S
C1076  H1116   1.153   .     S
C1076  H1121   1.079   .     S
C1076  C1132   1.532   .     S
O1077  C1151   1.441   .     S
O1077  C467    1.391   1_556 S
C1079  C1146   1.387   .     S
O1080  C1146   1.400   .     S
H1082  C1135   1.103   .     S
H1083  C1122   1.078   .     S
H1084  C1145   1.106   .     S
H1085  C1882   1.144   .     S
C1086  H1137   1.093   .     S
C1086  C1087   1.475   .     S
C1086  H6698   1.124   1_455 S
C1087  C1145   1.504   .     S
O1088  C1094   1.381   .     S
H1089  C1122   1.120   .     S
C1091  C1151   1.422   .     S
C1091  C1136   1.383   .     S
C1093  C1125   1.411   .     S
C1094  C1111   1.395   .     S
C1094  C1110   1.435   .     S
C1095  C1139   1.392   .     S
C1095  O1105   1.407   .     S
H1096  C595    1.071   1_556 S
H1098  C1118   1.101   .     S
C1100  C1158   1.384   .     S
C1101  C1129   1.538   .     S
C1101  H1162   1.130   .     S
C1104  C1129   1.524   .     S
C1106  C1111   1.377   .     S
C1108  C1886   1.369   .     S
C1108  C1829   1.408   .     S
C1113  C1139   1.407   .     S
C1114  C1150   1.558   .     S
C1114  C1129   1.540   .     S
H1119  C1165   1.057   .     S
H1120  C1149   1.107   .     S
C1122  H1134   1.072   .     S
C1128  H1138   1.076   .     S
C1128  H6678   1.130   1_455 S
C1128  H6705   1.148   1_455 S
H1130  C1829   1.074   .     S
C1135  H1144   1.101   .     S
C1136  C616    1.441   1_556 S
H1143  C511    1.239   1_556 S
C1145  H6597   1.075   1_455 S
C1147  C4063   1.369   .     S
C1147  C1149   1.382   .     S
H1148  C615    1.065   1_556 S
C1149  C1900   1.403   .     S
C1151  C450    1.379   1_556 S
C1152  C1898   1.405   .     S
H1153  O1166   0.974   .     S
C1156  H3924   1.048   .     S
H1157  C1158   1.075   .     S
C1158  C613    1.395   1_556 S
H1159  C1161   1.132   .     S
H1160  C1765   1.149   .     S
C1161  H1168   1.127   .     S
C1161  C3934   1.466   .     S
C1161  H3461   1.099   1_556 S
H1163  C599    1.115   1_556 S
O1164  C1875   1.377   .     S
O1164  C7506   1.412   1_455 S
C1165  C555    1.382   1_556 S
O1166  C1816   1.353   .     S
H1167  C575    1.098   1_556 S
C1169  H1202   1.125   .     S
C1169  H1204   1.099   .     S
C1169  H1246   1.119   .     S
C1169  C1325   1.568   .     S
C1170  C1181   1.450   .     S
C1170  C1172   1.363   .     S
C1170  C1184   1.439   .     S
H1171  C1336   1.099   .     S
C1172  F1180   1.316   .     S
C1172  C1173   1.409   .     S
C1173  C1174   1.364   .     S
C1173  F1226   1.366   .     S
C1174  C1182   1.435   .     S
C1174  C1268   1.477   .     S
C1175  H1328   1.077   .     S
C1175  H1233   1.154   .     S
C1176  C1236   1.513   .     S
C1176  C1210   1.511   .     S
C1176  C1776   1.537   1_554 S
C1176  C1834   1.538   1_554 S
H1177  C1286   1.084   .     S
C1178  H1269   1.086   .     S
C1178  H1234   1.069   .     S
C1178  H1279   1.132   .     S
C1178  C1191   1.536   .     S
C1179  C1205   1.400   .     S
C1179  C1220   1.489   .     S
C1181  O1188   1.426   .     S
C1181  C1182   1.435   .     S
C1182  O1217   1.417   .     S
H1183  C1201   1.131   .     S
C1184  N1243   1.130   .     S
H1185  C1304   1.090   .     S
H1186  C1309   1.074   .     S
H1187  C1213   1.192   .     S
O1188  C1241   1.358   .     S
H1189  C1286   1.072   .     S
C1190  H1229   1.097   .     S
C1190  C1252   1.520   .     S
C1190  H1203   1.119   .     S
C1191  C1223   1.522   .     S
C1191  C1266   1.517   .     S
C1191  C1257   1.575   .     S
C1192  C1296   1.353   .     S
C1192  C1275   1.379   .     S
C1192  C1256   1.554   .     S
H1193  C1210   1.091   .     S
C1194  C1278   1.414   .     S
C1194  C1224   1.471   .     S
C1194  C1212   1.403   .     S
O1195  C1291   1.409   .     S
O1195  C1933   1.410   .     S
H1196  C1250   1.125   .     S
H1197  C1266   1.071   .     S
C1198  C1300   1.416   .     S
C1198  C1334   1.548   .     S
C1198  C1251   1.399   .     S
H1199  C1274   1.083   .     S
C1200  O1302   1.422   .     S
C1200  C1296   1.371   .     S
C1200  C1310   1.427   .     S
C1201  C1281   1.356   .     S
C1201  C1241   1.393   .     S
C1205  C1254   1.378   .     S
C1205  C1325   1.498   .     S
C1206  H1227   1.103   .     S
C1206  C1245   1.538   .     S
C1206  H1797   1.112   1_554 S
C1206  H1831   1.125   1_554 S
H1207  C1257   1.112   .     S
H1208  C1309   1.105   .     S
C1209  C1317   1.462   .     S
C1209  N1249   1.170   .     S
C1210  H1293   1.048   .     S
C1210  H1881   1.072   1_554 S
O1211  C1285   1.359   .     S
O1211  C1287   1.393   .     S
C1212  C1228   1.385   .     S
C1212  H1259   1.138   .     S
C1213  H1305   1.125   .     S
C1213  H1218   1.096   .     S
C1213  C1245   1.496   .     S
C1214  H1527   1.108   .     S
C1214  H1544   1.121   .     S
C1214  C1325   1.539   .     S
C1214  C1220   1.494   .     S
H1215  C1272   1.077   .     S
H1216  C1262   1.120   .     S
O1217  C1239   1.355   .     S
N1219  C1543   1.147   .     S
C1220  C4226   1.564   .     S
C1220  C4219   1.498   .     S
H1221  C1298   1.091   .     S
H1222  C1250   1.100   .     S
C1223  C1231   1.431   .     S
C1223  C1525   1.399   .     S
C1224  C1275   1.525   .     S
C1224  C1286   1.535   .     S
C1224  C1272   1.503   .     S
C1225  C1312   1.383   .     S
C1225  O2062   1.436   .     S
C1225  C1291   1.382   .     S
C1228  O1289   1.406   .     S
C1228  C1285   1.421   .     S
H1230  C1257   1.158   .     S
C1231  H1261   1.086   .     S
C1231  C1404   1.419   .     S
C1232  O1289   1.374   .     S
C1232  C1240   1.409   .     S
C1232  C1287   1.400   .     S
C1235  O1302   1.400   .     S
C1235  C1312   1.424   .     S
C1235  C1271   1.426   .     S
C1236  H1964   1.118   .     S
C1236  H1242   1.091   .     S
C1236  H1258   1.093   .     S
C1237  H1238   1.102   .     S
C1237  H1313   1.074   .     S
C1237  C1334   1.589   .     S
C1237  H1270   1.057   .     S
C1239  C1314   1.360   .     S
C1239  C1241   1.447   .     S
C1240  C4070   1.359   .     S
C1240  C1283   1.410   .     S
H1244  C1257   1.105   .     S
H1247  C1309   1.107   .     S
H1248  C1262   1.067   .     S
C1250  H1306   1.077   .     S
C1250  C1256   1.558   .     S
C1251  C1486   1.347   .     S
C1251  C4118   1.537   .     S
C1252  C1304   1.542   .     S
C1252  C1472   1.537   .     S
H1253  C1337   1.152   .     S
C1254  H1294   1.091   .     S
C1256  C1286   1.477   .     S
C1256  C1309   1.535   .     S
C1260  N2089   1.130   .     S
C1260  C1312   1.418   .     S
C1262  C1301   1.504   .     S
C1262  H1320   1.081   .     S
C1263  C1337   1.352   .     S
C1263  C1303   1.401   .     S
C1263  C7591   1.478   1_455 S
C1264  H1290   1.170   .     S
C1264  C1310   1.401   .     S
C1264  C1275   1.354   .     S
H1265  C1300   1.111   .     S
C1266  H1280   1.121   .     S
C1266  C1536   1.552   .     S
N1267  C1268   1.159   .     S
C1271  C1317   1.397   .     S
C1271  O1276   1.373   .     S
C1272  H1297   1.153   .     S
C1272  C1301   1.526   .     S
C1273  H1299   1.082   .     S
C1273  H4223   1.105   .     S
C1273  H4155   1.120   .     S
C1273  C1334   1.514   .     S
C1274  C1303   1.363   .     S
C1274  C1315   1.393   .     S
O1276  C1310   1.416   .     S
H1277  C1304   1.101   .     S
C1278  C1298   1.398   .     S
C1278  C1301   1.495   .     S
C1281  C6174   1.571   1_455 S
C1281  C6923   1.401   1_455 S
N1282  C1283   1.148   .     S
H1284  C1323   1.076   .     S
C1285  C1298   1.402   .     S
C1287  C1308   1.377   .     S
H1288  C1296   1.047   .     S
C1291  C1317   1.370   .     S
C1292  O1928   1.396   .     S
C1292  C1300   1.377   .     S
C1292  C1324   1.458   .     S
H1295  C1330   1.131   .     S
C1301  C1323   1.526   .     S
C1303  C2023   1.545   .     S
C1304  C1534   1.539   .     S
H1307  C1330   1.120   .     S
C1308  C1335   1.352   .     S
C1308  C4188   1.386   .     S
O1311  C1329   1.356   .     S
O1311  C2025   1.451   .     S
C1314  H6839   1.117   1_455 S
C1314  C6923   1.380   1_455 S
C1315  C1333   1.430   .     S
C1315  O1321   1.358   .     S
N1316  C1906   1.166   1_554 S
O1318  C1333   1.384   .     S
O1318  C6891   1.378   1_455 S
H1319  C1330   1.113   .     S
O1321  C6910   1.364   1_455 S
H1322  C1323   1.096   .     S
C1324  C1486   1.354   .     S
C1324  O2298   1.388   .     S
C1325  C1336   1.534   .     S
O1326  C1809   1.388   1_554 S
O1326  C6829   1.388   1_455 S
C1327  C2083   1.498   .     S
C1327  C1330   1.532   .     S
C1327  C2076   1.509   .     S
C1327  C4164   1.552   .     S
C1329  C2010   1.417   .     S
C1329  C6911   1.362   1_455 S
C1331  C1990   1.402   .     S
C1331  C6922   1.378   1_455 S
C1331  C7591   1.555   1_455 S
H1332  C1336   1.097   .     S
C1333  C1337   1.396   .     S
C1334  C4153   1.490   .     S
C1335  N4170   1.156   .     S
C1336  H1540   1.076   .     S
H1338  C1341   1.116   .     S
H1339  C1776   1.071   1_554 S
H1340  C1424   1.080   .     S
C1341  H1456   1.147   .     S
C1341  C1536   1.492   .     S
C1341  C1476   1.600   .     S
C1342  C1476   1.543   .     S
C1342  C1353   1.421   .     S
C1342  C1514   1.381   .     S
C1343  C1389   1.549   .     S
C1343  C1453   1.505   .     S
C1343  C1417   1.505   .     S
C1343  C1530   1.476   .     S
H1344  C1393   1.085   .     S
H1345  C1347   1.087   .     S
H1346  C1520   1.085   .     S
C1347  H1348   1.086   .     S
C1347  C1476   1.511   .     S
C1347  H1497   1.074   .     S
H1349  C1383   1.157   .     S
H1350  C1488   1.136   .     S
C1351  C1504   1.381   .     S
C1351  H2274   1.131   .     S
C1351  C1359   1.417   .     S
H1352  C7152   1.086   1_455 S
C1353  C1482   1.382   .     S
C1353  C1536   1.575   .     S
C1354  C1454   1.494   .     S
C1354  C1463   1.533   .     S
C1354  C1424   1.504   .     S
C1354  C1529   1.516   .     S
O1355  C1440   1.439   .     S
O1355  C1479   1.349   .     S
C1356  H4422   1.059   .     S
C1356  H1646   1.135   .     S
C1356  C1733   1.478   .     S
C1356  C1446   1.519   .     S
H1357  C1358   1.155   .     S
C1358  C1516   1.476   .     S
C1358  H1373   1.086   .     S
C1358  H7009   1.117   1_455 S
C1359  C1733   1.538   .     S
C1359  C1489   1.366   .     S
C1360  C1361   1.411   .     S
C1360  C1404   1.420   .     S
C1360  O1364   1.393   .     S
C1361  C1525   1.421   .     S
C1361  H1365   1.080   .     S
O1362  C1388   1.389   .     S
C1363  N1435   1.134   .     S
C1363  C1447   1.394   .     S
O1364  C1371   1.444   .     S
C1366  C1375   1.395   .     S
C1366  C1372   1.401   .     S
C1366  C1386   1.493   .     S
H1367  C1424   1.075   .     S
H1368  C1484   1.131   .     S
C1369  C1447   1.388   .     S
C1369  O1462   1.370   .     S
C1369  C1397   1.394   .     S
C1370  C1371   1.404   .     S
C1370  C1395   1.339   .     S
C1370  C1376   1.382   .     S
C1371  C1441   1.416   .     S
C1372  H1418   1.150   .     S
C1372  C1479   1.378   .     S
C1375  C1430   1.581   .     S
C1375  C1526   1.359   .     S
C1376  N1449   1.188   .     S
H1377  C4277   1.073   .     S
H1378  C1478   1.109   .     S
H1379  C1460   1.079   .     S
C1380  O1519   1.415   .     S
C1380  C1395   1.417   .     S
C1380  C1461   1.337   .     S
C1381  C4351   1.429   .     S
C1381  C1397   1.371   .     S
C1382  C1514   1.412   .     S
C1382  O2219   1.317   .     S
C1382  C2202   1.463   .     S
C1383  H1475   1.066   .     S
C1383  C1516   1.497   .     S
C1383  H1492   1.083   .     S
C1384  H1442   1.183   .     S
C1384  H1431   1.082   .     S
C1384  C1450   1.521   .     S
C1384  H1542   1.068   .     S
H1385  C1393   1.145   .     S
C1386  C1499   1.588   .     S
C1386  C1451   1.514   .     S
C1386  C1436   1.519   .     S
H1387  C1429   1.165   .     S
C1388  C1488   1.386   .     S
C1388  C1524   1.409   .     S
C1389  H1443   1.185   .     S
C1389  H1464   1.104   .     S
C1389  H1445   1.113   .     S
C1390  C1516   1.487   .     S
C1390  C1468   1.567   .     S
C1390  H1538   1.122   .     S
C1390  H7041   1.118   1_455 S
H1391  C1426   1.154   .     S
H1392  C1526   1.084   .     S
C1393  H1523   1.126   .     S
C1393  C1450   1.475   .     S
C1395  O1518   1.387   .     S
H1396  C1530   1.088   .     S
C1397  O1528   1.414   .     S
C1398  C1450   1.543   .     S
C1398  C1410   1.342   .     S
C1398  C1480   1.429   .     S
C1399  C1506   1.370   .     S
C1399  C1484   1.416   .     S
C1399  O1462   1.379   .     S
H1400  C1410   1.100   .     S
C1401  C1511   1.372   .     S
C1401  C1533   1.385   .     S
C1401  C1420   1.552   .     S
C1402  C1447   1.407   .     S
H1403  C1533   1.076   .     S
C1404  O1448   1.399   .     S
H1405  C1463   1.095   .     S
O1406  C1524   1.383   .     S
C1407  C1484   1.405   .     S
C1407  C4380   1.406   .     S
C1407  C1446   1.535   .     S
C1408  C1490   1.393   .     S
C1408  O1474   1.357   .     S
C1408  C1504   1.457   .     S
H1409  C1414   1.111   .     S
C1410  C1730   1.388   .     S
H1411  C1436   1.094   .     S
C1412  C1549   1.412   .     S
C1412  C1417   1.366   .     S
C1412  H1457   1.067   .     S
H1413  C1520   1.075   .     S
C1414  C1502   1.364   .     S
C1414  C1524   1.408   .     S
H1415  C1482   1.092   .     S
H1416  C1451   1.108   .     S
C1417  C1559   1.410   .     S
H1419  C1421   1.104   .     S
C1420  C2167   1.479   .     S
C1420  C1439   1.551   .     S
C1420  C1480   1.520   .     S
C1421  H1458   1.129   .     S
C1421  C1430   1.579   .     S
C1421  C1428   1.505   .     S
H1422  C1426   1.128   .     S
H1423  C1463   1.116   .     S
C1424  H1491   1.103   .     S
H1425  C7152   1.126   1_455 S
C1426  C1534   1.528   .     S
C1426  H1470   1.129   .     S
H1427  C1453   1.136   .     S
C1428  C1502   1.560   .     S
C1428  C1478   1.555   .     S
C1428  C1500   1.564   .     S
C1429  H1517   1.127   .     S
C1429  H1503   1.049   .     S
C1429  C1476   1.483   .     S
C1430  C1501   1.527   .     S
C1430  C1436   1.543   .     S
H1432  C1436   1.098   .     S
C1433  C1541   1.389   .     S
C1433  C1516   1.492   .     S
C1433  C2156   1.365   .     S
H1434  C1499   1.123   .     S
H1437  C1478   1.080   .     S
C1438  O1518   1.401   .     S
C1438  C1512   1.382   .     S
C1439  C1450   1.509   .     S
C1439  H1513   1.130   .     S
C1439  H1522   1.121   .     S
C1440  C2296   1.379   .     S
C1440  C4337   1.420   .     S
C1441  C1461   1.396   .     S
C1441  O1448   1.438   .     S
C1444  N1477   1.183   .     S
C1444  C1521   1.410   .     S
C1446  C4323   1.540   .     S
C1446  C1489   1.536   .     S
C1451  H1493   1.054   .     S
C1451  H1509   1.132   .     S
H1452  C1490   1.102   .     S
C1453  H1469   1.077   .     S
C1453  H1532   1.068   .     S
C1454  C7005   1.369   1_455 S
C1454  C7122   1.374   1_455 S
H1455  C1499   1.142   .     S
H1459  C1500   1.120   .     S
C1460  C6343   1.559   1_455 S
C1460  H6974   1.070   1_455 S
C1461  C1543   1.382   .     S
C1463  H1495   1.142   .     S
H1465  C1514   1.104   .     S
H1466  C1520   1.121   .     S
H1467  C1530   1.094   .     S
C1468  C1529   1.521   .     S
C1468  C1541   1.512   .     S
C1468  C7005   1.529   1_455 S
H1471  C1529   1.156   .     S
C1472  C1505   1.391   .     S
H1473  C1478   1.128   .     S
O1474  C1498   1.369   .     S
C1479  C1535   1.394   .     S
C1480  C1640   1.395   .     S
H1481  C1499   1.122   .     S
C1482  C2202   1.411   .     S
H1483  C1500   1.110   .     S
C1486  H1507   1.112   .     S
C1487  H1496   1.095   .     S
C1487  C1508   1.334   .     S
C1487  C1505   1.391   .     S
C1488  C1501   1.387   .     S
C1489  C1490   1.419   .     S
H1494  C1500   1.089   .     S
C1498  C1521   1.385   .     S
C1498  C2171   1.366   .     S
C1501  C1502   1.421   .     S
C1504  O2112   1.400   .     S
C1505  C1534   1.517   .     S
C1506  C4305   1.380   .     S
C1506  O1528   1.367   .     S
C1508  O1539   1.404   .     S
H1510  C1529   1.119   .     S
C1511  C1515   1.398   .     S
C1511  C2211   1.496   .     S
C1512  O1519   1.394   .     S
C1512  C6331   1.388   1_455 S
C1515  H2292   1.060   .     S
C1515  C1602   1.389   .     S
C1520  C1534   1.627   .     S
C1521  C2248   1.424   .     S
C1525  C1536   1.545   .     S
C1526  C1535   1.370   .     S
C1530  C1604   1.564   .     S
H1531  C2216   1.066   .     S
C1533  C1633   1.372   .     S
C1535  O4388   1.362   .     S
H1537  C6948   1.100   1_455 S
C1541  C2103   1.375   .     S
C1545  C1687   1.373   .     S
C1545  C1615   1.373   .     S
C1545  H1574   1.130   .     S
H1546  C1675   1.070   .     S
H1547  C1711   1.140   .     S
C1548  C1570   1.556   .     S
C1548  C1553   1.533   .     S
C1548  H1693   1.087   .     S
C1548  H1608   1.139   .     S
C1549  O1742   1.375   .     S
C1549  C1631   1.434   .     S
H1550  C1587   1.081   .     S
O1551  C2472   1.383   .     S
O1551  C1619   1.384   .     S
C1552  C1560   1.443   .     S
C1552  O1660   1.411   .     S
C1552  C1648   1.360   .     S
C1553  C1643   1.554   .     S
C1553  C1675   1.504   .     S
C1553  C1737   1.598   .     S
C1554  H1671   1.112   .     S
C1554  C1658   1.513   .     S
C1554  H1622   1.087   .     S
C1554  H1618   1.146   .     S
N1555  C1654   1.178   .     S
C1556  C1629   1.343   .     S
C1556  C1669   1.409   .     S
C1556  C1620   1.553   .     S
C1557  H1625   1.134   .     S
C1557  H1726   1.074   .     S
C1557  H1718   1.100   .     S
C1557  C4546   1.530   .     S
H1558  C1650   1.120   .     S
C1559  C1604   1.510   .     S
C1559  C1651   1.384   .     S
C1560  O1581   1.400   .     S
C1560  C1603   1.399   .     S
C1561  C1601   1.416   .     S
C1561  C1667   1.413   .     S
C1561  O1690   1.360   .     S
C1562  C1584   1.392   .     S
C1562  N1652   1.134   .     S
C1563  C1673   1.501   .     S
C1563  C1650   1.534   .     S
C1563  C1688   1.518   .     S
C1563  C1700   1.533   .     S
H1564  C1623   1.114   .     S
C1565  H1663   1.057   .     S
C1565  C1674   1.417   .     S
C1565  C1605   1.391   .     S
C1566  N2433   1.179   .     S
C1566  C1569   1.427   .     S
H1567  C1653   1.138   .     S
C1568  O1681   1.421   .     S
C1568  C1732   1.412   .     S
C1569  C1582   1.370   .     S
C1569  C1600   1.416   .     S
C1570  C1720   1.566   .     S
C1570  C1674   1.436   .     S
C1570  C1700   1.525   .     S
O1571  C1606   1.417   .     S
O1571  C1600   1.387   .     S
H1572  C1587   1.083   .     S
H1573  C1691   1.120   .     S
C1575  N1624   1.162   .     S
C1575  C1645   1.378   .     S
H1576  C1628   1.096   .     S
O1577  C1689   1.414   .     S
O1577  C1687   1.381   .     S
H1578  C1617   1.078   .     S
H1579  C2521   1.090   .     S
N1580  C1595   1.127   .     S
O1581  C1592   1.392   .     S
C1582  O1686   1.402   .     S
C1582  C1594   1.445   .     S
C1583  O1660   1.363   .     S
C1583  C1592   1.428   .     S
C1583  C1584   1.413   .     S
C1584  C1586   1.350   .     S
C1585  C1592   1.380   .     S
C1585  C1593   1.371   .     S
C1585  C1591   1.357   .     S
C1586  O1698   1.383   .     S
C1586  C1591   1.446   .     S
C1587  H1611   1.148   .     S
C1587  C1638   1.548   .     S
C1588  H1685   1.066   .     S
C1588  C1606   1.426   .     S
C1588  C1673   1.428   .     S
H1589  C1629   1.129   .     S
O1590  C1591   1.375   .     S
O1590  C1715   1.390   .     S
C1593  N1596   1.178   .     S
C1594  O1644   1.364   .     S
C1594  C1597   1.409   .     S
C1595  C1597   1.372   .     S
C1597  C1599   1.403   .     S
O1598  C1599   1.405   .     S
O1598  C1605   1.410   .     S
C1599  C1600   1.411   .     S
C1601  H1721   1.146   .     S
C1601  C1643   1.423   .     S
C1602  C1633   1.422   .     S
C1602  O1686   1.414   .     S
C1603  H1661   1.115   .     S
C1603  C1694   1.410   .     S
C1604  C1680   1.475   .     S
C1604  C1694   1.516   .     S
C1605  C1606   1.433   .     S
O1607  C1713   1.405   .     S
O1607  C2520   1.375   .     S
C1609  C1669   1.381   .     S
C1609  C1665   1.403   .     S
C1609  H1656   1.083   .     S
N1610  C1634   1.156   .     S
H1612  C1617   1.136   .     S
C1613  C1723   1.470   .     S
C1613  C1739   1.403   .     S
C1613  O1681   1.405   .     S
H1614  C1647   1.064   .     S
C1615  C1638   1.583   .     S
C1616  N1706   1.164   .     S
C1616  C7031   1.439   1_455 S
C1617  H1657   1.085   .     S
C1617  C1638   1.528   .     S
C1619  C1665   1.428   .     S
C1619  C1629   1.352   .     S
C1620  C4413   1.449   .     S
C1620  C1668   1.566   .     S
C1620  C1695   1.523   .     S
O1621  C1760   1.380   .     S
O1621  H1677   0.943   .     S
C1623  H1736   1.110   .     S
C1623  H1701   1.103   .     S
C1623  C1733   1.531   .     S
C1626  C1707   1.389   .     S
C1626  O1690   1.398   .     S
C1627  O1655   1.419   .     S
C1627  C1676   1.405   .     S
C1627  C1653   1.358   .     S
C1628  H1682   1.086   .     S
C1628  H1670   1.090   .     S
C1628  C1658   1.534   .     S
H1630  C1648   1.079   .     S
C1631  O1734   1.316   .     S
C1631  C1651   1.421   .     S
H1632  C4584   1.126   .     S
C1633  O1644   1.395   .     S
C1634  C1732   1.437   .     S
C1635  C2349   1.580   .     S
C1635  H1712   1.096   .     S
C1635  C1697   1.507   .     S
C1635  H1678   1.083   .     S
C1636  C1645   1.380   .     S
C1636  O7266   1.390   1_455 S
O1637  C1667   1.404   .     S
O1637  C1707   1.395   .     S
C1638  C1647   1.512   .     S
C1639  C1739   1.384   .     S
C1639  C1746   1.377   .     S
C1639  H1745   1.084   .     S
C1640  H1642   1.116   .     S
C1640  C1715   1.387   .     S
H1641  C1675   1.104   .     S
C1643  C1720   1.373   .     S
C1645  C1689   1.396   .     S
C1647  H1699   1.147   .     S
C1648  C1664   1.374   .     S
C1649  C1672   1.399   .     S
C1649  O1662   1.397   .     S
C1649  C1725   1.386   .     S
C1650  H1851   1.087   .     S
C1650  H1728   1.093   .     S
C1651  H1684   1.089   .     S
C1653  C1738   1.398   .     S
C1654  C1659   1.417   .     S
O1655  C1672   1.383   .     S
C1658  C1669   1.463   .     S
C1658  C1668   1.596   .     S
C1659  C1672   1.411   .     S
C1659  C1713   1.418   .     S
O1662  C1676   1.380   .     S
C1664  C1694   1.410   .     S
C1664  C1748   1.486   .     S
C1665  O1705   1.450   .     S
C1666  H1692   1.044   .     S
C1666  C1720   1.371   .     S
C1666  C1667   1.382   .     S
C1668  H1702   1.057   .     S
C1668  H1696   1.090   .     S
C1673  C1674   1.399   .     S
C1675  H1714   1.085   .     S
C1676  C4590   1.370   .     S
H1679  C1737   1.058   .     S
C1680  C1748   1.549   .     S
H1683  C1711   1.105   .     S
C1688  H1750   1.060   .     S
C1688  H1724   1.110   .     S
C1688  H1716   1.070   .     S
C1691  H1709   1.070   .     S
C1691  C1697   1.566   .     S
C1691  H1704   1.117   .     S
C1695  H4597   1.065   .     S
C1695  H1903   1.082   .     S
C1695  C4557   1.512   .     S
C1697  C1735   1.557   .     S
C1697  C1741   1.560   .     S
O1698  C1730   1.434   .     S
C1700  H1749   1.119   .     S
C1700  H1731   1.118   .     S
H1703  C1741   1.141   .     S
O1705  C2446   1.382   .     S
C1707  C1722   1.390   .     S
H1708  C1737   1.108   .     S
H1710  C1711   1.087   .     S
C1711  C7255   1.491   1_455 S
C1713  C2310   1.405   .     S
C1715  C1730   1.444   .     S
H1717  C2373   1.094   .     S
H1719  C1723   1.121   .     S
C1722  C7332   1.352   1_455 S
C1723  C1744   1.409   .     S
C1725  C2310   1.413   .     S
C1725  C2500   1.424   .     S
H1727  C1741   1.078   .     S
C1729  C1735   1.377   .     S
C1729  C2567   1.414   .     S
C1729  H1883   1.128   .     S
C1733  C4582   1.496   .     S
O1734  C7160   1.377   1_455 S
C1735  C2358   1.391   .     S
C1737  H1762   1.124   .     S
C1738  C4448   1.408   .     S
C1738  C4589   1.511   .     S
C1739  O1743   1.364   .     S
H1740  C4503   1.117   .     S
C1741  H1822   1.093   .     S
O1742  C7302   1.418   1_455 S
C1744  C4589   1.553   .     S
C1744  C1746   1.379   .     S
C1746  C4546   1.523   .     S
H1747  C2521   1.115   .     S
H1751  C1807   1.139   .     S
C1752  O1867   1.387   .     S
C1752  C1754   1.399   .     S
C1752  C1796   1.404   .     S
C1753  O1862   1.424   .     S
C1753  C1870   1.406   .     S
C1753  C1780   1.390   .     S
C1754  C1842   1.407   .     S
C1754  C1905   1.372   .     S
C1755  C1886   1.530   .     S
C1755  C1901   1.493   .     S
C1755  C1799   1.634   .     S
H1756  C1808   1.091   .     S
C1757  H1830   1.124   .     S
C1757  C1770   1.615   .     S
C1757  H1813   1.112   .     S
C1757  H1825   1.080   .     S
C1758  C1814   1.361   .     S
C1758  N1877   1.139   .     S
C1759  C1859   1.375   .     S
C1759  C1839   1.355   .     S
C1759  C1775   1.381   .     S
C1760  C1841   1.364   .     S
C1760  C1816   1.385   .     S
H1761  C1888   1.109   .     S
C1763  H1782   1.081   .     S
C1763  C1898   1.410   .     S
C1763  C1880   1.406   .     S
H1764  C1854   1.108   .     S
C1765  C1894   1.351   .     S
C1765  C1816   1.409   .     S
C1766  C2695   1.369   .     S
C1766  H1800   1.145   .     S
C1766  C1871   1.379   .     S
C1767  C1854   1.535   .     S
C1767  C1849   1.510   .     S
C1767  C1868   1.515   .     S
C1767  C1807   1.593   .     S
H1768  C1799   1.146   .     S
H1769  C1792   1.098   .     S
C1770  C1801   1.507   .     S
C1770  C1836   1.478   .     S
C1770  C1878   1.545   .     S
C1771  C1901   1.435   .     S
C1771  C1794   1.525   .     S
C1771  C1792   1.367   .     S
H1772  C1808   1.107   .     S
C1773  H1791   1.103   .     S
C1773  H1826   1.087   .     S
C1773  C1779   1.504   .     S
C1773  H1788   1.104   .     S
O1774  C4709   1.346   .     S
O1774  C1900   1.451   .     S
C1775  C1809   1.453   .     S
C1775  O7525   1.389   1_455 S
C1776  H2571   1.113   .     S
C1776  C1866   1.553   .     S
C1776  H1339   1.071   1_556 S
C1776  C1176   1.537   1_556 S
H1777  C4635   1.097   .     S
N1778  C1859   1.165   .     S
C1779  C1882   1.589   .     S
C1779  C1894   1.561   .     S
C1780  C1868   1.401   .     S
C1780  H1804   1.103   .     S
O1781  C1827   1.424   .     S
O1781  C1842   1.388   .     S
C1783  C1790   1.537   .     S
C1783  H2530   1.098   .     S
C1783  H1902   1.117   .     S
C1783  H7425   1.055   1_455 S
H1784  C1838   1.101   .     S
C1785  O1889   1.376   .     S
C1785  C1792   1.359   .     S
C1785  C1875   1.412   .     S
C1786  C1794   1.501   .     S
C1786  H1806   1.104   .     S
C1786  H1798   1.144   .     S
C1786  H1787   1.081   .     S
H1789  C1849   1.069   .     S
C1790  C2712   1.531   .     S
C1790  C1847   1.518   .     S
C1790  C1891   1.571   .     S
H1793  C1810   1.117   .     S
C1794  C1799   1.480   .     S
C1794  C1808   1.561   .     S
C1795  H2716   1.155   .     S
C1795  C1893   1.414   .     S
C1795  C1827   1.434   .     S
C1796  C1814   1.408   .     S
C1796  O1862   1.398   .     S
H1797  C1206   1.112   1_556 S
C1799  H1873   1.033   .     S
C1801  C1904   1.405   .     S
C1801  C1818   1.399   .     S
H1802  C1838   1.139   .     S
H1803  C1805   1.174   .     S
C1805  H1864   1.044   .     S
C1805  H1835   1.065   .     S
C1805  C1840   1.482   .     S
C1807  H1843   1.137   .     S
C1807  H1876   1.113   .     S
C1808  H1812   1.084   .     S
C1809  C1824   1.403   .     S
C1809  O1326   1.388   1_556 S
C1810  C1817   1.387   .     S
C1810  C1870   1.398   .     S
C1811  O1837   1.444   .     S
C1811  C1839   1.389   .     S
C1811  C1824   1.414   .     S
C1814  C1858   1.402   .     S
C1815  C1829   1.380   .     S
C1815  C1845   1.408   .     S
C1815  O1837   1.340   .     S
C1817  C1868   1.362   .     S
C1817  C1848   1.483   .     S
C1818  C2648   1.423   .     S
C1818  H1865   1.091   .     S
H1819  C1847   1.104   .     S
H1820  C1847   1.156   .     S
H1821  C1854   1.124   .     S
H1823  C1878   1.093   .     S
C1824  C1906   1.340   .     S
C1827  C1861   1.393   .     S
H1828  C1878   1.104   .     S
H1831  C1206   1.125   1_556 S
H1832  C1878   1.088   .     S
H1833  C1836   1.084   .     S
C1834  C2638   1.408   .     S
C1834  C1890   1.444   .     S
C1834  C1176   1.538   1_556 S
C1836  C1866   1.566   .     S
C1836  H1850   1.089   .     S
C1838  C1840   1.518   .     S
C1838  C1887   1.524   .     S
C1839  O1856   1.384   .     S
C1840  C1852   1.555   .     S
C1840  C1880   1.504   .     S
C1841  H1857   1.095   .     S
C1841  C1846   1.388   .     S
C1842  C1858   1.403   .     S
C1844  C1845   1.422   .     S
C1844  H1853   1.115   .     S
C1844  C1886   1.339   .     S
C1845  O1856   1.378   .     S
C1846  C1887   1.548   .     S
C1846  C1894   1.404   .     S
C1847  C1848   1.575   .     S
C1848  C1871   1.537   .     S
C1848  C1849   1.472   .     S
C1849  H1855   1.112   .     S
C1852  H1899   1.112   .     S
C1852  H1885   1.055   .     S
C1852  H1896   1.129   .     S
C1854  H1874   1.097   .     S
C1858  O1863   1.378   .     S
C1860  C1887   1.513   .     S
C1860  C1880   1.358   .     S
C1861  C1888   1.352   .     S
C1861  O1863   1.366   .     S
C1866  C1890   1.556   .     S
C1866  C1904   1.451   .     S
O1867  C1870   1.408   .     S
H1869  C2712   1.117   .     S
C1871  C1891   1.365   .     S
N1872  C2581   1.141   .     S
C1879  C1893   1.391   .     S
C1879  C4653   1.608   .     S
C1879  C1888   1.392   .     S
H1881  C1210   1.072   1_556 S
C1882  H1892   1.063   .     S
C1882  C1887   1.536   .     S
N1884  C2687   1.176   .     S
O1889  C7438   1.404   1_455 S
C1890  C2693   1.346   .     S
C1891  C2588   1.400   .     S
C1893  C4710   1.518   .     S
H1895  C4635   1.073   .     S
N1897  C4751   1.147   .     S
C1898  O4641   1.330   .     S
C1900  C3904   1.393   .     S
C1904  C2650   1.401   .     S
C1905  N2619   1.149   .     S
C1906  N1316   1.166   1_556 S
O1907  C2052   1.396   .     S
O1907  C1980   1.409   .     S
H1908  C1962   1.093   .     S
C1909  H1999   1.105   .     S
C1909  H2070   1.068   .     S
C1909  C1951   1.559   .     S
C1909  C78     1.527   1_565 S
H1910  C2038   1.078   .     S
C1911  H1955   1.059   .     S
C1911  H2055   1.118   .     S
C1911  C2033   1.516   .     S
C1911  C7604   1.522   1_455 S
C1912  H2028   1.138   .     S
C1912  H2087   1.109   .     S
C1912  C2023   1.524   .     S
C1912  C7591   1.536   1_455 S
C1913  H1920   1.150   .     S
C1913  C1954   1.412   .     S
C1913  C1981   1.377   .     S
C1914  C1956   1.423   .     S
C1914  C1984   1.398   .     S
C1914  O2014   1.333   .     S
C1915  H2056   1.117   .     S
C1915  H1938   1.094   .     S
C1915  C2061   1.477   .     S
C1915  H2078   1.140   .     S
H1916  C1977   1.064   .     S
C1917  C2061   1.500   .     S
C1917  C2027   1.376   .     S
C1917  C2286   1.384   .     S
H1918  C1962   1.157   .     S
H1919  C1986   1.103   .     S
H1921  C2638   1.098   1_554 S
H1922  C1984   1.054   .     S
H1923  C1929   1.093   .     S
H1924  C2021   1.101   .     S
H1925  C2091   1.077   .     S
C1926  O1928   1.349   .     S
C1926  C1961   1.396   .     S
C1926  C2080   1.459   .     S
C1927  C2005   1.436   .     S
C1927  O2064   1.355   .     S
C1927  C2050   1.382   .     S
C1929  H2044   1.086   .     S
C1929  H2022   1.125   .     S
C1929  C2032   1.528   .     S
C1930  C1949   1.439   .     S
C1930  C2040   1.368   .     S
C1930  C2051   1.414   .     S
H1931  C2027   1.089   .     S
H1932  C2009   1.087   .     S
C1933  C2039   1.372   .     S
C1933  C1995   1.427   .     S
C1934  C2006   1.414   .     S
C1934  C2052   1.398   .     S
C1934  C2294   1.391   .     S
H1935  C2076   1.099   .     S
C1936  C2038   1.362   .     S
C1936  C2033   1.550   .     S
C1936  C2003   1.388   .     S
N1937  C2006   1.162   .     S
C1939  H2072   1.057   .     S
C1939  C2075   1.407   .     S
C1939  C4797   1.356   .     S
C1940  C2224   1.438   .     S
C1940  C1997   1.383   .     S
C1940  C1984   1.365   .     S
O1941  C2013   1.335   .     S
O1941  C2068   1.395   .     S
H1942  C2021   1.151   .     S
H1943  C4792   1.057   .     S
N1944  C1949   1.172   .     S
H1945  C2580   1.135   1_554 S
H1946  C1975   1.109   .     S
H1947  C2001   1.088   .     S
C1948  N1978   1.166   .     S
C1948  C1982   1.388   .     S
H1950  C2031   1.169   .     S
C1951  C1986   1.500   .     S
C1951  C1971   1.564   .     S
C1951  C1991   1.533   .     S
H1952  C2076   1.132   .     S
C1953  H2042   1.125   .     S
C1953  C1974   1.488   .     S
C1953  C2033   1.581   .     S
C1953  H1988   1.081   .     S
C1954  C2012   1.392   .     S
C1954  O2008   1.402   .     S
C1956  O1968   1.409   .     S
C1956  C2031   1.389   .     S
H1957  C1959   1.086   .     S
H1958  C2021   1.163   .     S
C1959  H2079   1.082   .     S
C1959  H2024   1.141   .     S
C1959  C1965   1.558   .     S
C1960  O2034   1.447   .     S
C1960  C1982   1.354   .     S
C1960  C2025   1.474   .     S
C1961  C2013   1.379   .     S
C1961  C1966   1.403   .     S
C1962  H7590   1.102   1_455 S
C1962  C7604   1.488   1_455 S
H1963  C2001   1.119   .     S
C1965  C2049   1.567   .     S
C1965  C1981   1.565   .     S
C1965  C1986   1.549   .     S
C1966  N2054   1.167   .     S
H1967  C2654   1.099   1_554 S
O1968  C2051   1.420   .     S
H1969  C2001   1.179   .     S
H1970  C1998   1.067   .     S
C1971  C1975   1.426   .     S
C1971  C1981   1.393   .     S
H1972  C1990   1.138   .     S
H1973  C2049   1.145   .     S
C1974  C2001   1.496   .     S
C1974  C2003   1.575   .     S
C1974  C1977   1.530   .     S
C1975  C2012   1.373   .     S
H1976  C2039   1.103   .     S
C1977  H1996   1.119   .     S
C1977  H2047   1.201   .     S
H1979  C2046   1.141   .     S
C1980  C1987   1.461   .     S
C1980  C1998   1.375   .     S
C1982  C1985   1.424   .     S
O1983  C2005   1.411   .     S
O1983  C3      1.426   1_565 S
C1985  O2620   1.390   1_554 S
C1985  C2643   1.444   1_554 S
C1986  H2071   1.138   .     S
C1987  C21     1.385   1_565 S
C1987  O2      1.372   1_565 S
H1989  C2050   1.090   .     S
C1990  C2010   1.424   .     S
C1991  C1998   1.414   .     S
C1991  C2074   1.415   .     S
C1992  C2053   1.412   .     S
C1992  C2041   1.402   .     S
C1992  C2000   1.375   .     S
H1993  C2303   1.088   .     S
H1994  C2097   1.085   .     S
C1995  O2062   1.388   .     S
C1995  C2016   1.383   .     S
C1997  C2031   1.347   .     S
C1997  C2226   1.568   .     S
C2000  N2018   1.139   .     S
C2002  C2075   1.488   .     S
C2002  C2017   1.482   .     S
C2002  C2046   1.542   .     S
C2002  C2076   1.536   .     S
C2003  C2050   1.349   .     S
H2004  C4813   1.062   .     S
C2005  C2038   1.377   .     S
H2007  C2049   1.082   .     S
O2008  C2041   1.383   .     S
C2009  H2092   1.116   .     S
C2009  H2585   1.058   1_554 S
C2009  C2674   1.576   1_554 S
C2010  O2034   1.393   .     S
C2011  C2016   1.377   .     S
C2011  C2017   1.409   .     S
C2011  C2032   1.547   .     S
C2012  O2057   1.423   .     S
C2013  C2090   1.423   .     S
O2014  C2053   1.404   .     S
H2015  C2046   1.087   .     S
C2016  H2058   1.082   .     S
C2017  C2039   1.410   .     S
H2019  C7689   1.053   1_455 S
H2020  C2049   1.098   .     S
C2021  C2032   1.511   .     S
C2023  C2035   1.522   .     S
C2023  C7675   1.604   1_455 S
C2025  C2713   1.360   1_554 S
H2026  C2035   1.021   .     S
C2027  C2068   1.381   .     S
H2029  C2069   1.123   .     S
O2030  C2077   1.380   .     S
O2030  C4794   1.352   .     S
C2032  C2046   1.519   .     S
C2033  C2048   1.512   .     S
C2035  H2059   1.097   .     S
C2035  H2086   1.071   .     S
H2036  C2091   1.081   .     S
H2037  C2045   1.063   .     S
C2040  C2041   1.401   .     S
C2040  O2057   1.362   .     S
H2043  C2082   1.109   .     S
C2045  H2067   1.105   .     S
C2045  H2060   1.116   .     S
C2045  C2061   1.546   .     S
C2048  C7665   1.371   1_455 S
C2048  C7689   1.415   1_455 S
C2051  C2053   1.388   .     S
C2052  C2073   1.396   .     S
C2061  C2270   1.531   .     S
N2063  C4775   1.151   .     S
O2064  C74     1.369   1_565 S
H2065  C2082   1.123   .     S
H2066  C2069   1.049   .     S
C2068  C2287   1.400   .     S
C2069  H93     1.128   1_565 S
C2069  C83     1.532   1_565 S
C2073  O2      1.405   1_565 S
C2073  C86     1.399   1_565 S
C2074  C21     1.382   1_565 S
C2074  C78     1.551   1_565 S
C2075  C2083   1.385   .     S
C2077  C2704   1.403   1_554 S
C2077  C2752   1.398   1_565 S
C2080  C2283   1.419   .     S
C2080  O2298   1.378   .     S
H2081  C2082   1.075   .     S
C2082  C2691   1.468   1_554 S
C2083  C4121   1.421   .     S
H2084  C4      1.085   1_565 S
H2085  C2238   1.149   .     S
C2088  C2223   1.522   .     S
C2088  C89     1.422   1_565 S
C2088  C7909   1.373   1_455 S
C2090  O2244   1.417   .     S
C2090  C2283   1.355   .     S
C2091  C2223   1.610   .     S
C2091  C2255   1.538   .     S
C2093  C2250   1.548   .     S
C2093  H2170   1.065   .     S
C2093  H2102   1.068   .     S
C2093  C2149   1.476   .     S
H2094  C2275   1.130   .     S
C2095  H2199   1.131   .     S
C2095  C4964   1.496   .     S
C2095  H2193   1.065   .     S
C2095  H2124   1.106   .     S
C2096  C2162   1.406   .     S
C2096  C2134   1.408   .     S
C2096  O2253   1.369   .     S
C2097  H2291   1.091   .     S
C2097  C2224   1.515   .     S
C2097  H2269   1.068   .     S
C2098  C2192   1.379   .     S
C2098  C2183   1.410   .     S
C2098  O2179   1.352   .     S
C2099  C2192   1.387   .     S
C2099  N2120   1.183   .     S
C2100  C2252   1.496   .     S
C2100  H2268   1.092   .     S
C2100  H2209   1.118   .     S
C2100  C2226   1.545   .     S
H2101  C2212   1.127   .     S
C2103  H2163   1.126   .     S
C2103  C2181   1.384   .     S
H2104  C2168   1.075   .     S
N2105  C2256   1.152   .     S
C2106  C2282   1.395   .     S
C2106  O2154   1.396   .     S
C2106  C2241   1.400   .     S
C2107  C2217   1.385   .     S
C2107  C2165   1.399   .     S
C2107  H125    1.096   1_565 S
C2108  N2213   1.143   .     S
C2108  C2296   1.402   .     S
C2109  C2174   1.368   .     S
C2109  C2194   1.403   .     S
C2109  C2150   1.420   .     S
H2110  C2137   1.066   .     S
C2111  C2139   1.421   .     S
C2111  C2191   1.382   .     S
C2111  C2183   1.393   .     S
O2112  C2171   1.436   .     S
H2113  C2160   1.103   .     S
C2114  C2186   1.375   .     S
C2114  C2230   1.416   .     S
C2114  O2208   1.398   .     S
O2115  C2169   1.402   .     S
O2115  C2181   1.472   .     S
O2116  C2150   1.420   .     S
O2116  C2195   1.392   .     S
H2117  C2275   1.059   .     S
H2118  C2188   1.102   .     S
O2119  C2230   1.390   .     S
O2119  C2174   1.385   .     S
H2121  C2212   1.089   .     S
C2122  C2285   1.408   .     S
C2122  O2153   1.396   .     S
C2122  C2195   1.377   .     S
N2123  C2242   1.129   .     S
C2125  C2159   1.402   .     S
C2125  O2147   1.343   .     S
C2125  C2248   1.416   .     S
C2126  C2161   1.404   .     S
C2126  C2175   1.374   .     S
C2126  H2140   1.100   .     S
N2127  C2240   1.155   .     S
H2128  C2188   1.090   .     S
C2129  C2151   1.382   .     S
C2129  O2208   1.359   .     S
C2129  C2174   1.392   .     S
H2130  C2167   1.125   .     S
C2131  C2255   1.519   .     S
C2131  H2205   1.095   .     S
C2131  H2262   1.067   .     S
C2131  H2233   1.098   .     S
C2132  C2220   1.366   .     S
C2132  C2206   1.545   .     S
C2132  C2186   1.410   .     S
H2133  C2188   1.118   .     S
C2134  O2147   1.431   .     S
C2134  C2137   1.421   .     S
H2135  C2290   1.143   .     S
C2136  O2219   1.364   .     S
C2136  C2139   1.400   .     S
C2136  C2192   1.392   .     S
C2137  C2172   1.399   .     S
C2138  N2201   1.140   .     S
C2138  C2159   1.380   .     S
C2139  O2164   1.392   .     S
C2141  C2295   1.411   .     S
C2141  C2242   1.421   .     S
C2141  C2177   1.359   .     S
C2142  C2235   1.405   .     S
C2142  C2217   1.384   .     S
C2142  C2255   1.529   .     S
H2143  C2225   1.119   .     S
C2144  C2149   1.478   .     S
C2144  C2214   1.395   .     S
C2144  C2161   1.362   .     S
H2145  C2270   1.111   .     S
N2146  C2194   1.168   .     S
C2148  C2259   1.391   .     S
C2148  C2237   1.364   .     S
C2148  C2250   1.515   .     S
C2149  C2160   1.571   .     S
C2149  C2212   1.562   .     S
C2150  C2204   1.360   .     S
C2151  C2173   1.387   .     S
C2151  C2204   1.388   .     S
H2152  C2166   1.117   .     S
O2153  C2204   1.388   .     S
O2154  C2196   1.371   .     S
C2155  C2270   1.494   .     S
C2155  C2263   1.522   .     S
C2155  C2286   1.531   .     S
C2155  C2220   1.555   .     S
C2156  H2278   1.093   .     S
C2156  C2215   1.363   .     S
C2157  C2237   1.365   .     S
C2157  C2232   1.406   .     S
C2157  O2265   1.375   .     S
C2158  C2172   1.378   .     S
C2158  C2162   1.395   .     S
C2158  C2226   1.559   .     S
C2159  C2171   1.390   .     S
C2160  H2261   1.144   .     S
C2160  H2236   1.097   .     S
C2161  C2250   1.541   .     S
C2162  H2271   1.069   .     S
O2164  C2202   1.438   .     S
C2165  C2196   1.429   .     S
C2165  O2247   1.376   .     S
C2166  C2220   1.352   .     S
C2166  C2230   1.412   .     S
C2167  C2211   1.509   .     S
C2167  H2277   1.100   .     S
C2168  C2195   1.408   .     S
C2168  C2257   1.380   .     S
C2169  C2299   1.324   .     S
C2169  C2177   1.429   .     S
C2172  C2252   1.517   .     S
C2173  N2185   1.130   .     S
C2175  C2182   1.405   .     S
C2175  O2178   1.427   .     S
H2176  C2237   1.110   .     S
C2177  O2207   1.384   .     S
O2178  C2183   1.421   .     S
O2179  C2182   1.370   .     S
H2180  C2270   1.110   .     S
C2181  C2215   1.390   .     S
C2182  C2214   1.383   .     S
N2184  C2191   1.167   .     S
C2186  H2251   1.035   .     S
H2187  C2266   1.084   .     S
C2188  C2211   1.517   .     S
H2189  C2263   1.106   .     S
H2190  C4915   1.125   .     S
C2196  C2235   1.381   .     S
H2197  C4982   1.146   .     S
H2198  C2225   1.101   .     S
C2200  O2222   1.431   .     S
C2200  C2258   1.387   .     S
C2200  C2241   1.390   .     S
H2203  C2260   1.075   .     S
C2206  C2288   1.549   .     S
C2206  C2263   1.494   .     S
C2206  C109    1.542   1_565 S
O2207  C2215   1.377   .     S
H2210  C2260   1.052   .     S
C2211  C2275   1.543   .     S
C2212  H2243   1.038   .     S
C2214  H2221   1.104   .     S
C2216  H2245   1.062   .     S
C2216  H2264   1.157   .     S
C2216  C2443   1.537   .     S
C2217  C2223   1.487   .     S
H2218  C2235   1.101   .     S
O2222  C2246   1.412   .     S
C2223  C2290   1.572   .     S
C2224  C2303   1.584   .     S
C2224  C2276   1.517   .     S
C2225  H2239   1.101   .     S
C2225  C2252   1.548   .     S
C2226  C2276   1.516   .     S
H2227  C2284   1.051   .     S
H2228  C2288   1.074   .     S
H2229  C2276   1.113   .     S
H2231  C2276   1.065   .     S
C2232  C112    1.400   1_565 S
C2232  O100    1.394   1_565 S
H2234  C2275   1.151   .     S
C2238  H2300   1.095   .     S
C2238  H2267   1.072   .     S
C2238  C2255   1.518   .     S
C2240  C2283   1.475   .     S
C2241  C2256   1.366   .     S
O2244  C2287   1.383   .     S
C2246  C2455   1.378   .     S
C2246  C111    1.418   1_565 S
O2247  C2282   1.456   .     S
C2248  O2253   1.411   .     S
H2249  C2284   1.060   .     S
C2250  C2260   1.541   .     S
C2252  C2284   1.481   .     S
H2254  C2303   1.126   .     S
C2257  C2461   1.393   .     S
C2257  C2443   1.460   .     S
C2258  C120    1.401   1_565 S
C2258  O113    1.362   1_565 S
C2259  C112    1.373   1_565 S
C2259  C95     1.482   1_565 S
C2260  C95     1.534   1_565 S
C2263  H2273   1.055   .     S
O2265  C2294   1.343   .     S
C2266  C2286   1.381   .     S
C2266  C2287   1.385   .     S
O2272  C2281   1.380   .     S
O2272  C4887   1.395   .     S
C2279  C2294   1.426   .     S
C2279  O100    1.397   1_565 S
C2279  C86     1.390   1_565 S
H2280  C2288   1.125   .     S
C2281  C2296   1.368   .     S
C2281  C4961   1.430   .     S
C2282  C120    1.360   1_565 S
C2284  H2293   1.117   .     S
C2285  H2505   1.102   .     S
C2285  C2461   1.386   .     S
C2288  H4931   1.117   .     S
H2289  C2475   1.086   .     S
C2290  H128    1.134   1_565 S
C2290  C83     1.569   1_565 S
C2295  C7807   1.410   1_455 S
C2295  O7893   1.372   1_455 S
H2297  C5059   1.109   .     S
C2299  C7807   1.379   1_455 S
C2299  C7824   1.372   1_455 S
H2301  C2492   1.110   .     S
H2302  C2303   1.100   .     S
H2304  C2445   1.087   .     S
C2305  C2655   1.383   .     S
C2305  C2418   1.394   .     S
C2305  H2642   1.120   .     S
O2306  C2417   1.435   .     S
O2306  C249    1.376   1_565 S
C2307  C2417   1.410   .     S
C2307  C2419   1.370   .     S
C2307  C2404   1.402   .     S
O2308  C2465   1.344   .     S
O2308  C2310   1.338   .     S
C2309  H2435   1.078   .     S
C2309  C2319   1.561   .     S
C2309  H2383   1.057   .     S
C2309  H2350   1.142   .     S
C2311  H2312   1.093   .     S
C2311  C2364   1.556   .     S
C2311  H2428   1.156   .     S
C2311  H2337   1.061   .     S
C2313  C2342   1.512   .     S
C2313  H2357   1.059   .     S
C2313  C2429   1.485   .     S
C2313  H2334   1.130   .     S
H2314  C2378   1.109   .     S
C2315  O2496   1.379   .     S
C2315  C2655   1.452   .     S
C2315  C2386   1.449   .     S
O2316  C2412   1.384   .     S
O2316  C2389   1.395   .     S
C2317  H2442   1.086   .     S
C2317  C2364   1.549   .     S
C2317  H2487   1.127   .     S
C2317  C2349   1.548   .     S
H2318  C2333   1.146   .     S
C2319  C2448   1.499   .     S
C2319  C2341   1.536   .     S
C2319  C2514   1.514   .     S
H2320  C2492   1.118   .     S
C2321  C2417   1.405   .     S
C2321  C2495   1.434   .     S
C2321  O201    1.432   1_565 S
H2322  C2492   1.054   .     S
C2323  H2517   1.130   .     S
C2323  C2340   1.351   .     S
C2323  C2416   1.426   .     S
H2324  C2445   1.068   .     S
H2325  C2341   1.084   .     S
N2326  C2481   1.134   .     S
C2327  N2708   1.165   .     S
C2327  C2471   1.381   .     S
C2328  H2338   1.067   .     S
C2328  H2362   1.102   .     S
C2328  H2522   1.091   .     S
C2328  C2503   1.547   .     S
C2329  C2449   1.358   .     S
C2329  C2336   1.416   .     S
C2329  H2408   1.114   .     S
C2330  C2339   1.399   .     S
C2330  C2336   1.395   .     S
C2330  C2343   1.525   .     S
C2331  C2360   1.372   .     S
C2331  C2372   1.351   .     S
C2331  C2347   1.517   .     S
N2332  C2404   1.148   .     S
C2333  H2453   1.094   .     S
C2333  H2454   1.102   .     S
C2333  C2447   1.519   .     S
H2335  C2424   1.133   .     S
C2336  C2342   1.546   .     S
C2339  H2432   1.092   .     S
C2339  C2388   1.345   .     S
C2340  O2359   1.392   .     S
C2340  C2355   1.401   .     S
C2341  H2441   1.049   .     S
C2341  H2365   1.093   .     S
C2342  C2344   1.617   .     S
C2342  C2398   1.507   .     S
C2343  C2492   1.523   .     S
C2343  C2475   1.608   .     S
C2343  C2344   1.531   .     S
C2344  H2457   1.098   .     S
C2344  H2394   1.084   .     S
C2345  C2354   1.396   .     S
C2345  N2478   1.182   .     S
H2346  C2391   1.080   .     S
C2347  C2461   1.481   .     S
C2347  C2369   1.525   .     S
C2347  C2451   1.547   .     S
H2348  C2460   1.054   .     S
C2349  C2418   1.500   .     S
C2349  C2358   1.552   .     S
C2351  H2367   1.104   .     S
C2351  C2396   1.441   .     S
C2351  C2384   1.340   .     S
H2352  C2387   1.138   .     S
C2353  H2370   1.091   .     S
C2353  H2356   1.106   .     S
C2353  H2440   1.073   .     S
C2353  C2447   1.491   .     S
C2354  C2518   1.393   .     S
C2354  C2412   1.371   .     S
C2355  C2425   1.352   .     S
C2355  O2467   1.411   .     S
C2358  C2368   1.370   .     S
O2359  C2466   1.393   .     S
C2360  C2391   1.410   .     S
C2360  C2447   1.518   .     S
H2361  C2369   1.072   .     S
C2363  C2407   1.357   .     S
C2363  C2384   1.359   .     S
C2363  C2413   1.569   .     S
C2364  C2521   1.589   .     S
C2364  C2491   1.507   .     S
H2366  C2445   1.137   .     S
C2368  C2519   1.432   .     S
C2368  H2498   1.095   .     S
C2369  C2443   1.543   .     S
C2369  H2403   1.130   .     S
C2371  C2483   1.404   .     S
C2371  C2444   1.394   .     S
C2371  O2426   1.386   .     S
C2372  H2501   1.142   .     S
C2372  C5149   1.386   .     S
C2373  C2520   1.424   .     S
C2373  C2410   1.357   .     S
H2374  C2448   1.150   .     S
H2375  C2399   1.146   .     S
C2376  C2455   1.376   .     S
C2376  C2413   1.505   .     S
C2376  C202    1.392   1_565 S
C2377  O2467   1.410   .     S
C2377  C2395   1.403   .     S
C2377  C2466   1.387   .     S
C2378  C2381   1.518   .     S
C2378  H2405   1.117   .     S
C2378  H2401   1.125   .     S
C2379  C2464   1.364   .     S
C2379  C2524   1.424   .     S
C2379  C7997   1.373   1_455 S
C2380  C2507   1.545   .     S
C2380  C2510   1.556   .     S
C2380  C2564   1.468   .     S
C2380  C2448   1.555   .     S
C2381  C2430   1.492   .     S
C2381  C2399   1.554   .     S
C2381  C2384   1.551   .     S
N2382  C2500   1.160   .     S
N2385  C2458   1.187   .     S
C2386  C2491   1.373   .     S
C2386  H2488   1.088   .     S
C2387  H2434   1.109   .     S
C2387  H2406   1.132   .     S
C2387  C2456   1.490   .     S
C2388  O2393   1.401   .     S
C2388  C2449   1.416   .     S
C2389  C262    1.401   1_565 S
C2389  C210    1.403   1_565 S
H2390  C2430   1.085   .     S
C2391  C5098   1.375   .     S
H2392  C2448   1.127   .     S
O2393  C2421   1.392   .     S
C2395  C2458   1.395   .     S
C2395  C2446   1.413   .     S
C2396  C2411   1.442   .     S
C2396  O2484   1.421   .     S
H2397  C2451   1.090   .     S
C2398  C2460   1.399   .     S
C2398  C2410   1.392   .     S
C2399  H2400   1.093   .     S
C2399  H2459   1.070   .     S
C2402  C2425   1.413   .     S
C2402  C2416   1.368   .     S
C2402  C2456   1.561   .     S
C2407  C2411   1.383   .     S
C2407  H2490   1.102   .     S
C2409  C2503   1.478   .     S
C2409  H2711   1.130   .     S
C2409  H181    1.128   1_565 S
C2409  H259    1.068   1_565 S
C2410  C2429   1.503   .     S
C2411  O8052   1.401   1_455 S
C2412  C2468   1.353   .     S
C2413  C2430   1.552   .     S
C2413  C152    1.553   1_565 S
H2414  C2451   1.096   .     S
C2415  C2483   1.385   .     S
C2415  C2503   1.523   .     S
C2415  C2507   1.410   .     S
C2416  C2438   1.576   .     S
C2418  C2491   1.396   .     S
C2419  O2439   1.406   .     S
C2419  C2421   1.393   .     S
H2420  C2436   1.113   .     S
C2421  C2495   1.347   .     S
C2422  C2466   1.371   .     S
C2422  C2472   1.407   .     S
C2422  C2486   1.401   .     S
H2423  C2470   1.105   .     S
C2424  C2456   1.528   .     S
C2424  C2438   1.560   .     S
C2424  H2463   1.101   .     S
C2425  H2450   1.052   .     S
O2426  C2464   1.422   .     S
C2427  C2507   1.377   .     S
C2427  C2444   1.423   .     S
C2427  H2506   1.041   .     S
C2429  C2470   1.535   .     S
C2429  C2436   1.553   .     S
C2430  H2497   1.121   .     S
H2431  C2475   1.129   .     S
C2436  H2462   1.096   .     S
C2436  H2511   1.119   .     S
O2437  C2469   1.425   .     S
O2437  C2444   1.398   .     S
C2438  C5201   1.555   .     S
C2438  C2477   1.497   .     S
O2439  C2449   1.406   .     S
C2443  C2489   1.502   .     S
C2445  C2456   1.514   .     S
C2446  C2472   1.380   .     S
C2447  C2451   1.567   .     S
H2452  C2455   1.122   .     S
C2460  C2465   1.436   .     S
C2464  C2469   1.397   .     S
C2465  C2520   1.461   .     S
C2468  C5159   1.386   .     S
C2468  O3228   1.433   1_565 S
C2469  C2471   1.397   .     S
C2470  H2473   1.022   .     S
C2470  H2525   1.087   .     S
C2471  C8061   1.398   1_455 S
C2474  C2513   1.433   .     S
C2474  C2516   1.399   .     S
C2474  O252    1.388   1_565 S
C2475  H2480   1.080   .     S
H2476  C2494   1.141   .     S
C2477  C2523   1.391   .     S
C2477  C2494   1.363   .     S
H2479  C2489   1.087   .     S
C2481  C7951   1.413   1_455 S
O2482  C5062   1.373   .     S
O2482  C2518   1.412   .     S
C2483  H2502   1.124   .     S
O2484  C8069   1.396   1_455 S
H2485  C167    1.107   1_565 S
C2486  N5238   1.156   .     S
C2489  H2493   1.196   .     S
C2489  H2508   1.097   .     S
C2494  C2513   1.352   .     S
C2495  C2499   1.372   .     S
O2496  C2553   1.412   .     S
C2499  N170    1.158   1_565 S
C2503  C2510   1.561   .     S
H2504  C262    1.085   1_565 S
H2509  C2521   1.145   .     S
C2510  H2526   1.119   .     S
C2510  H2600   1.091   .     S
H2512  C5183   1.116   .     S
C2513  O2683   1.445   .     S
C2514  C2564   1.360   .     S
C2514  C2563   1.380   .     S
H2515  C2563   1.102   .     S
C2516  C2523   1.377   .     S
C2516  H3230   1.119   1_565 S
C2518  C5126   1.372   .     S
C2519  O2717   1.401   .     S
C2519  C2567   1.428   .     S
C2523  C5107   1.492   .     S
C2524  N248    1.165   1_565 S
C2527  C2605   1.363   .     S
C2527  C2557   1.386   .     S
C2527  C2546   1.461   .     S
H2528  C2705   1.155   .     S
C2529  C2564   1.386   .     S
C2529  H2566   1.101   .     S
C2529  C2544   1.414   .     S
C2531  H2556   1.151   .     S
C2531  H2606   1.073   .     S
C2531  C2672   1.494   .     S
C2531  C2622   1.585   .     S
C2532  C2591   1.402   .     S
C2532  C2640   1.415   .     S
C2532  C2661   1.380   .     S
O2533  C5305   1.410   .     S
O2533  C2694   1.416   .     S
C2534  C2667   1.554   .     S
C2534  C2668   1.390   .     S
C2534  C2623   1.321   .     S
H2535  C2653   1.118   .     S
C2536  C2547   1.329   .     S
C2536  C2684   1.458   .     S
C2536  O2543   1.428   .     S
N2537  C2669   1.172   .     S
C2538  N2608   1.171   .     S
C2538  C2706   1.383   .     S
H2539  C2549   1.152   .     S
H2540  C2678   1.100   .     S
O2541  C2645   1.370   .     S
O2541  C2695   1.356   .     S
C2542  C2560   1.378   .     S
C2542  H2698   1.090   .     S
C2542  C8269   1.392   1_455 S
O2543  C2681   1.351   .     S
C2544  O2595   1.382   .     S
C2544  C2614   1.428   .     S
H2545  C2623   1.111   .     S
C2546  C2593   1.370   .     S
C2546  O2617   1.435   .     S
C2547  C2651   1.406   .     S
C2547  C2615   1.346   .     S
H2548  C2656   1.073   .     S
C2549  H2627   1.109   .     S
C2549  C2690   1.594   .     S
C2549  H2629   1.093   .     S
C2550  C2587   1.436   .     S
C2550  C2603   1.397   .     S
C2550  O2700   1.419   .     S
H2551  C2596   1.113   .     S
C2552  H2692   1.065   .     S
C2552  C2582   1.392   .     S
C2552  C2584   1.410   .     S
C2553  C2615   1.406   .     S
C2553  C2555   1.369   .     S
H2554  C2650   1.130   .     S
C2555  C2684   1.418   .     S
C2555  C8076   1.438   1_455 S
C2557  O2631   1.410   .     S
C2557  C2592   1.439   .     S
H2558  C2663   1.121   .     S
H2559  C2599   1.134   .     S
C2560  C2707   1.409   .     S
C2560  O2620   1.403   .     S
H2561  C2693   1.095   .     S
C2562  H2702   1.119   .     S
C2562  C2573   1.382   .     S
C2562  C8272   1.333   1_455 S
C2563  C2614   1.347   .     S
O2565  C2641   1.398   .     S
O2565  C2591   1.364   .     S
C2567  O2700   1.375   .     S
C2568  C2592   1.402   .     S
C2568  C2633   1.382   .     S
C2568  C2593   1.386   .     S
H2569  C2656   1.114   .     S
C2570  C2586   1.384   .     S
C2570  C2622   1.529   .     S
C2570  C2589   1.391   .     S
C2572  C2628   1.396   .     S
C2572  C5410   1.418   .     S
C2572  C2669   1.427   .     S
C2573  C2676   1.417   .     S
C2573  C2672   1.542   .     S
C2574  C2706   1.393   .     S
C2574  O2577   1.360   .     S
C2574  C369    1.447   1_565 S
H2575  C2588   1.088   .     S
H2576  C2652   1.079   .     S
O2577  C2670   1.387   .     S
H2578  C2652   1.112   .     S
C2579  C2703   1.407   .     S
C2579  O2646   1.407   .     S
C2579  C2638   1.411   .     S
C2580  H2686   1.054   .     S
C2580  C2674   1.508   .     S
C2580  H2697   1.082   .     S
C2580  H1945   1.135   1_556 S
C2581  C2601   1.471   .     S
C2582  C2626   1.416   .     S
C2582  O2685   1.372   .     S
C2583  C2670   1.391   .     S
C2583  C2699   1.390   .     S
C2583  O337    1.423   1_565 S
C2584  C2691   1.479   .     S
C2584  C2666   1.396   .     S
H2585  C2009   1.058   1_556 S
C2586  H2675   1.099   .     S
C2586  C414    1.396   1_565 S
C2587  C2682   1.402   .     S
C2587  C2687   1.428   .     S
C2588  C2641   1.384   .     S
C2589  C2672   1.550   .     S
C2589  C282    1.392   1_565 S
O2590  C2628   1.373   .     S
O2590  C2703   1.345   .     S
C2591  C2645   1.432   .     S
C2592  O2595   1.408   .     S
C2593  O2597   1.394   .     S
H2594  C2598   1.161   .     S
C2596  H2696   1.088   .     S
C2596  C2667   1.583   .     S
C2596  C2691   1.608   .     S
O2597  C2618   1.359   .     S
C2598  C2635   1.534   .     S
C2598  H2679   1.085   .     S
C2598  C2672   1.562   .     S
C2599  C2691   1.528   .     S
C2599  H2632   1.084   .     S
C2599  H2630   1.101   .     S
C2601  C2636   1.402   .     S
C2601  C2645   1.405   .     S
H2602  C2654   1.094   .     S
C2603  C2677   1.375   .     S
C2603  O2717   1.344   .     S
C2604  O2660   1.414   .     S
C2604  C2705   1.392   .     S
C2604  C408    1.421   1_565 S
C2605  N2689   1.164   .     S
H2607  C2665   1.150   .     S
N2609  C2651   1.132   .     S
H2610  C2625   1.070   .     S
H2611  C8251   1.100   1_455 S
N2612  C2640   1.166   .     S
O2613  C2615   1.425   .     S
O2613  C2655   1.365   .     S
C2614  O2631   1.352   .     S
N2616  C2633   1.158   .     S
O2617  C2648   1.390   .     S
C2618  C2650   1.408   .     S
C2618  C2648   1.439   .     S
O2620  C1985   1.390   1_556 S
C2621  C2704   1.361   .     S
C2621  N2709   1.153   .     S
C2622  C2652   1.535   .     S
C2622  C2663   1.502   .     S
C2623  C2670   1.430   .     S
H2624  C2625   1.090   .     S
C2625  H2644   1.080   .     S
C2625  C2635   1.547   .     S
C2626  O2662   1.369   .     S
C2626  C2653   1.428   .     S
C2628  C2637   1.393   .     S
H2634  C2678   1.089   .     S
C2635  C2665   1.518   .     S
C2635  C2676   1.541   .     S
C2636  O2685   1.394   .     S
C2636  C2661   1.365   .     S
C2637  C5379   1.371   .     S
C2637  O2646   1.361   .     S
C2638  H1921   1.098   1_556 S
N2639  C425    1.186   1_565 S
C2641  C2695   1.376   .     S
C2643  C2713   1.417   .     S
C2643  O2673   1.454   .     S
C2643  C1985   1.444   1_556 S
H2647  C2712   1.108   .     S
H2649  C2665   1.137   .     S
C2652  H2658   1.081   .     S
C2653  C2666   1.398   .     S
C2654  C2674   1.523   .     S
C2654  C2667   1.526   .     S
C2654  H1967   1.099   1_556 S
C2656  H2710   1.084   .     S
C2656  C8104   1.532   1_455 S
C2657  C2690   1.497   .     S
C2657  C2705   1.399   .     S
C2657  C280    1.384   1_565 S
H2659  C2665   1.102   .     S
O2660  C2680   1.387   .     S
C2661  O2662   1.468   .     S
C2663  H2664   1.077   .     S
C2663  H2671   1.094   .     S
C2666  C2667   1.521   .     S
C2668  C2699   1.363   .     S
C2668  C2674   1.568   .     S
O2673  C2707   1.397   .     S
C2674  C2009   1.576   1_556 S
C2676  C8254   1.374   1_455 S
C2677  C2694   1.401   .     S
C2677  C2701   1.404   .     S
C2678  H5405   1.141   .     S
C2678  C2690   1.588   .     S
C2680  C2704   1.416   .     S
C2680  C291    1.388   1_565 S
C2681  C8195   1.407   1_455 S
C2681  C8251   1.378   1_455 S
C2682  C2694   1.394   .     S
C2682  O5416   1.383   .     S
O2683  C302    1.376   1_565 S
C2684  O8132   1.453   1_455 S
H2688  C2712   1.152   .     S
C2690  C427    1.500   1_565 S
C2691  C2082   1.468   1_556 S
C2693  C2703   1.414   .     S
C2699  H431    1.132   1_565 S
C2701  N2714   1.174   .     S
C2704  C2077   1.403   1_556 S
C2706  C305    1.396   1_565 S
C2707  C8249   1.422   1_455 S
C2713  C2715   1.356   .     S
C2713  C2025   1.360   1_556 S
C2715  N7536   1.145   1_455 S
C2718  H2841   1.109   .     S
C2718  C2844   1.574   .     S
C2718  C2742   1.556   .     S
C2718  H2744   1.015   .     S
H2719  C2749   1.099   .     S
H2720  C2859   1.105   .     S
H2721  C2745   1.118   .     S
H2722  C2823   1.083   .     S
C2723  H2873   1.092   .     S
C2723  H2767   1.103   .     S
C2723  H2874   1.152   .     S
C2724  H2759   1.102   .     S
C2724  C2766   1.533   .     S
C2724  H2788   1.141   .     S
C2724  H2732   1.107   .     S
O2725  C2876   1.338   .     S
O2725  C2826   1.419   .     S
H2726  C2810   1.064   .     S
H2727  C2810   1.100   .     S
H2728  C2835   1.135   .     S
N2729  C2839   1.173   .     S
O2730  C2770   1.416   .     S
O2730  C2807   1.398   .     S
C2731  N2824   1.164   .     S
C2731  C2870   1.357   .     S
O2733  C3050   1.397   .     S
O2733  C2848   1.352   .     S
C2734  H2763   1.109   .     S
C2734  H3067   1.131   .     S
C2734  C3487   1.524   .     S
C2734  H3019   1.083   .     S
H2735  O2867   0.931   .     S
C2736  C2823   1.508   .     S
C2736  C2804   1.563   .     S
C2736  C2814   1.477   .     S
C2736  C2810   1.500   .     S
C2737  C2782   1.369   .     S
C2737  O2762   1.377   .     S
C2737  C4851   1.388   1_545 S
C2738  O2786   1.416   .     S
C2738  C2756   1.352   .     S
C2738  C2757   1.379   .     S
H2739  C2756   1.092   .     S
C2740  C2777   1.427   .     S
C2740  C2754   1.443   .     S
C2740  O2789   1.369   .     S
H2741  C2863   1.075   .     S
C2742  C2863   1.518   .     S
C2742  C2816   1.526   .     S
C2742  C2806   1.527   .     S
N2743  C2784   1.162   .     S
C2745  C2844   1.509   .     S
C2745  H2843   1.113   .     S
C2745  H2813   1.114   .     S
C2746  H2817   1.083   .     S
C2746  C2773   1.483   .     S
C2746  C2805   1.521   .     S
C2746  H2825   1.088   .     S
C2747  C3435   1.385   .     S
C2747  C2848   1.424   .     S
C2747  O3040   1.386   .     S
H2748  C2804   1.067   .     S
C2749  H2794   1.131   .     S
C2749  H2790   1.091   .     S
C2749  C2844   1.584   .     S
H2750  C2863   1.089   .     S
H2751  C2833   1.113   .     S
C2752  O2828   1.362   .     S
C2752  C2077   1.398   1_545 S
C2752  C3315   1.395   1_554 S
N2753  C2832   1.156   .     S
C2754  C2811   1.458   .     S
C2754  H2820   1.147   .     S
C2755  C2760   1.440   .     S
C2755  H2793   1.123   .     S
C2755  C2769   1.386   .     S
C2756  C2816   1.420   .     S
C2757  C2861   1.387   .     S
C2757  O2840   1.360   .     S
H2758  C2796   1.096   .     S
C2760  O2867   1.445   .     S
C2760  C3249   1.405   1_554 S
C2761  C3349   1.573   .     S
C2761  C2809   1.565   .     S
C2761  C3517   1.518   .     S
C2761  C2800   1.572   .     S
O2762  C2812   1.428   .     S
O2764  C2858   1.393   .     S
O2764  C2968   1.384   .     S
H2765  C2804   1.118   .     S
C2766  C5469   1.514   .     S
C2766  C2796   1.564   .     S
C2766  C5425   1.527   .     S
C2768  C2791   1.369   .     S
C2768  C2839   1.361   .     S
C2768  C2848   1.379   .     S
C2769  C2827   1.391   .     S
C2769  C2773   1.564   .     S
C2770  C2795   1.410   .     S
C2770  C2778   1.401   .     S
C2771  C2822   1.392   .     S
C2771  O2786   1.395   .     S
C2771  C2781   1.395   .     S
C2772  C2814   1.379   .     S
C2772  H2847   1.127   .     S
C2772  C2812   1.404   .     S
C2773  C2800   1.487   .     S
C2773  C2821   1.533   .     S
C2774  C2797   1.416   .     S
C2774  C3422   1.436   .     S
C2774  O4042   1.464   1_554 S
C2775  N3471   1.164   .     S
C2775  C2838   1.421   .     S
H2776  C2854   1.100   .     S
C2777  O2780   1.394   .     S
C2777  C2854   1.398   .     S
C2778  O2857   1.456   .     S
C2778  C2833   1.421   .     S
H2779  C2802   1.137   .     S
O2780  C2783   1.391   .     S
C2781  O2840   1.365   .     S
C2781  C2881   1.371   .     S
C2782  C2856   1.382   .     S
C2782  C3314   1.381   1_554 S
C2783  C2838   1.409   .     S
C2783  C2787   1.403   .     S
C2784  C2803   1.385   .     S
H2785  C2796   1.085   .     S
C2787  C2797   1.395   .     S
C2787  O2789   1.423   .     S
C2791  C3396   1.398   .     S
C2791  O3437   1.436   .     S
H2792  C3051   1.139   .     S
C2795  H2808   1.078   .     S
C2795  C2821   1.359   .     S
C2796  H2865   1.087   .     S
C2797  C3323   1.367   1_554 S
H2798  C2837   1.087   .     S
H2799  C2800   1.092   .     S
C2800  H2830   1.130   .     S
C2801  C2803   1.425   .     S
C2801  C2826   1.402   .     S
C2801  O2868   1.406   .     S
C2802  C4772   1.422   1_545 S
C2802  C4803   1.378   1_545 S
C2803  C2845   1.406   .     S
C2804  H2818   1.128   .     S
C2805  C2827   1.510   .     S
C2805  C2859   1.526   .     S
C2805  C3327   1.518   1_554 S
C2806  C2854   1.369   .     S
C2806  C2811   1.401   .     S
C2807  C2845   1.379   .     S
C2807  C2850   1.359   .     S
C2809  C2821   1.401   .     S
C2809  C2833   1.412   .     S
C2810  H2866   1.111   .     S
C2811  C2844   1.552   .     S
C2812  C4853   1.416   1_545 S
C2814  C4820   1.384   1_545 S
C2815  N2872   1.156   .     S
C2815  C3478   1.414   .     S
C2816  C2860   1.401   .     S
C2819  C3331   1.409   1_554 S
C2819  C4821   1.403   1_545 S
C2819  C4850   1.378   1_545 S
C2822  C2855   1.360   .     S
C2822  C2864   1.347   .     S
C2823  H2871   1.057   .     S
C2823  C4854   1.534   1_545 S
C2826  C2850   1.389   .     S
C2827  C3272   1.352   1_554 S
O2828  C4803   1.403   1_545 S
C2829  C2858   1.392   .     S
C2829  C5510   1.400   .     S
C2829  O2904   1.435   .     S
C2832  C2850   1.347   .     S
H2834  C2837   1.078   .     S
C2835  C2849   1.530   .     S
C2835  H2846   1.103   .     S
C2835  H2842   1.159   .     S
H2836  C2859   1.128   .     S
C2837  H2853   1.101   .     S
C2837  C2849   1.539   .     S
C2838  C3422   1.342   .     S
C2845  O2857   1.415   .     S
C2849  C2860   1.555   .     S
C2849  C2863   1.542   .     S
H2851  C3517   1.135   .     S
H2852  C2861   1.120   .     S
C2855  N5447   1.143   .     S
C2856  N2879   1.134   .     S
C2858  C2870   1.417   .     S
C2859  H2880   1.098   .     S
C2860  C2861   1.379   .     S
H2862  C5469   1.062   .     S
C2864  O5546   1.410   .     S
C2864  C2907   1.431   .     S
O2868  C2869   1.401   .     S
C2869  C2876   1.466   .     S
C2869  C2934   1.376   .     S
C2870  C5552   1.380   .     S
H2875  C2995   1.132   .     S
C2876  C3015   1.362   .     S
H2877  C2941   1.145   .     S
H2878  C3349   1.139   .     S
C2881  C2907   1.388   .     S
C2881  C3004   1.340   .     S
H2882  C5064   1.110   1_545 S
C2883  C3052   1.436   .     S
C2883  C3005   1.375   .     S
C2883  C4867   1.503   1_545 S
O2884  C3023   1.420   .     S
O2884  C3102   1.368   .     S
C2885  O2918   1.465   .     S
C2885  C2955   1.421   .     S
C2885  C2905   1.370   .     S
H2886  C4934   1.128   1_545 S
C2887  H2976   1.084   .     S
C2887  H3017   1.101   .     S
C2887  C3020   1.559   .     S
C2887  H2943   1.113   .     S
C2888  C2958   1.396   .     S
C2888  O3024   1.392   .     S
C2888  C2895   1.392   .     S
C2889  H3034   1.095   .     S
C2889  C2975   1.391   .     S
C2889  C3032   1.360   .     S
N2890  C2965   1.144   .     S
H2891  C2893   1.075   .     S
H2892  C3025   1.111   .     S
C2893  C3020   1.508   .     S
C2893  H2928   1.130   .     S
C2893  H2989   1.050   .     S
C2894  H2982   1.104   .     S
C2894  C2927   1.536   .     S
C2894  H2983   1.109   .     S
C2894  C2972   1.533   .     S
C2895  H3028   1.125   .     S
C2895  C2961   1.343   .     S
C2896  C5608   1.543   .     S
C2896  C3046   1.416   .     S
C2896  C3722   1.422   .     S
H2897  C3005   1.077   .     S
C2898  C2949   1.400   .     S
C2898  C2923   1.380   .     S
C2898  O2946   1.394   .     S
C2899  C2979   1.426   .     S
C2899  C2909   1.336   .     S
C2899  C2965   1.398   .     S
H2900  C3029   1.070   .     S
C2901  O2933   1.422   .     S
C2901  C3029   1.389   .     S
C2901  C3035   1.460   .     S
H2902  C2962   1.085   .     S
C2903  C2931   1.378   .     S
C2903  N3026   1.139   .     S
O2904  C3032   1.389   .     S
C2905  C2948   1.379   .     S
C2905  C2920   1.421   .     S
C2906  C2961   1.362   .     S
C2906  C2950   1.384   .     S
C2906  C2974   1.591   .     S
C2907  O3018   1.355   .     S
H2908  C2984   1.100   .     S
C2909  O3038   1.414   .     S
C2909  C2986   1.458   .     S
C2910  C3051   1.372   .     S
C2910  C2987   1.556   .     S
C2910  C2913   1.376   .     S
H2911  C2995   1.128   .     S
H2912  C3007   1.061   .     S
C2913  C3002   1.390   .     S
C2913  C2927   1.467   .     S
H2914  C2962   1.079   .     S
H2915  C3060   1.096   .     S
H2916  C2940   1.096   .     S
H2917  C3007   1.124   .     S
O2918  C2949   1.344   .     S
O2919  C2998   1.343   .     S
O2919  C2979   1.399   .     S
C2920  N2963   1.160   .     S
H2921  C2966   1.053   .     S
N2922  C2999   1.125   .     S
C2923  H2957   1.097   .     S
C2923  C2969   1.411   .     S
O2924  C3056   1.354   .     S
O2924  C2958   1.395   .     S
H2925  C2934   1.150   .     S
C2926  C2972   1.510   .     S
C2926  C2984   1.380   .     S
C2926  C2935   1.402   .     S
C2927  C2935   1.565   .     S
C2927  C3031   1.543   .     S
C2929  O3040   1.425   .     S
C2929  C3050   1.420   .     S
C2929  C3002   1.400   .     S
H2930  C2994   1.104   .     S
C2931  C3023   1.375   .     S
C2931  C3016   1.409   .     S
N2932  C2992   1.163   .     S
O2933  C2948   1.412   .     S
C2934  C3036   1.402   .     S
C2935  C2952   1.404   .     S
C2936  C3046   1.384   .     S
C2936  O2942   1.418   .     S
C2936  C2978   1.406   .     S
C2937  C2969   1.363   .     S
C2937  C3006   1.365   .     S
C2937  C3182   1.521   .     S
H2938  C2940   1.122   .     S
N2939  C3004   1.142   .     S
C2940  C3033   1.545   .     S
C2940  H3043   1.120   .     S
C2941  C3027   1.397   .     S
C2941  C2968   1.404   .     S
O2942  C2986   1.373   .     S
H2944  C5067   1.055   1_545 S
H2945  C2994   1.066   .     S
O2946  C2955   1.374   .     S
C2947  O2964   1.383   .     S
C2947  C3164   1.433   .     S
C2947  C3102   1.427   .     S
C2948  C2960   1.386   .     S
C2949  C3006   1.435   .     S
C2950  H3000   1.070   .     S
C2950  C2958   1.420   .     S
C2951  C2959   1.402   .     S
C2951  O2993   1.433   .     S
C2951  C2979   1.410   .     S
C2952  C2998   1.366   .     S
C2952  H2953   1.091   .     S
C2954  C3016   1.417   .     S
C2954  C2988   1.378   .     S
C2954  O3003   1.423   .     S
C2955  C2970   1.406   .     S
C2956  N3009   1.173   .     S
C2956  C2970   1.362   .     S
C2959  C2986   1.407   .     S
C2959  C2992   1.379   .     S
C2960  C2970   1.412   .     S
C2960  O3030   1.432   .     S
C2961  C3033   1.564   .     S
C2962  C2987   1.527   .     S
C2962  H3044   1.117   .     S
O2964  C3014   1.405   .     S
C2966  C3037   1.509   .     S
C2966  H3062   1.110   .     S
C2966  H2977   1.115   .     S
H2967  C2995   1.154   .     S
C2968  C3032   1.485   .     S
C2969  C2974   1.475   .     S
H2971  C3007   1.070   .     S
C2972  C3007   1.499   .     S
C2972  C2994   1.563   .     S
C2973  C5631   1.400   .     S
C2973  C5005   1.559   1_545 S
C2973  C7725   1.398   1_545 S
C2974  C3060   1.578   .     S
C2974  C3216   1.526   .     S
C2975  C3027   1.407   .     S
C2975  C3020   1.575   .     S
C2978  O3038   1.415   .     S
C2978  C3061   1.374   .     S
H2980  C3031   1.149   .     S
H2981  C3031   1.090   .     S
C2984  C2990   1.399   .     S
H2985  C3002   1.096   .     S
C2987  C3042   1.561   .     S
C2987  C3031   1.541   .     S
C2988  C2999   1.423   .     S
C2988  C3014   1.366   .     S
C2990  O2993   1.388   .     S
C2990  C2998   1.445   .     S
H2991  C3013   1.109   .     S
C2994  H2997   1.132   .     S
C2995  C4867   1.526   1_545 S
C2996  H3012   1.146   .     S
C2996  C3008   1.492   .     S
C2996  H3021   1.096   .     S
C2996  C3020   1.560   .     S
H3001  C3042   1.138   .     S
O3003  C3041   1.390   .     S
C3005  C3035   1.387   .     S
C3006  H3088   1.120   .     S
C3008  C3013   1.552   .     S
C3008  C3036   1.558   .     S
C3008  C3027   1.517   .     S
H3010  C3025   1.082   .     S
H3011  C3025   1.087   .     S
C3013  H3022   1.123   .     S
C3013  C3037   1.542   .     S
C3014  C3023   1.391   .     S
C3015  H3066   1.067   .     S
C3015  C3039   1.402   .     S
C3016  O3045   1.347   .     S
O3018  C5666   1.385   .     S
O3024  C3055   1.421   .     S
C3025  C3037   1.498   .     S
C3029  C3052   1.352   .     S
O3030  C3035   1.397   .     S
C3033  C3132   1.485   .     S
C3033  C3060   1.483   .     S
C3036  C3039   1.434   .     S
C3037  C3039   1.539   .     S
C3041  C3058   1.420   .     S
C3041  C4875   1.366   1_545 S
C3042  H3049   1.094   .     S
C3042  H3059   1.090   .     S
O3045  C3058   1.362   .     S
C3046  H3048   1.079   .     S
H3047  C5596   1.120   .     S
C3050  C3051   1.379   .     S
C3052  C5005   1.555   1_545 S
H3053  C4929   1.181   1_545 S
H3054  C4929   1.108   1_545 S
C3055  C3659   1.376   .     S
C3055  C3056   1.434   .     S
C3056  C3595   1.395   .     S
H3057  C4934   1.125   1_545 S
C3058  C4974   1.421   1_545 S
C3060  H3214   1.128   .     S
C3061  C3722   1.347   .     S
C3061  H3529   1.122   .     S
H3063  C4881   1.093   1_545 S
H3064  C3132   1.105   .     S
H3065  C3219   1.129   .     S
H3068  C3071   1.150   .     S
H3069  C3195   1.076   .     S
C3070  C3153   1.475   .     S
C3070  C3141   1.558   .     S
C3070  C3083   1.487   .     S
C3070  C3135   1.525   .     S
C3071  H3079   1.096   .     S
C3071  C3100   1.558   .     S
C3071  H3072   1.105   .     S
C3073  C3221   1.453   .     S
C3073  C3186   1.598   .     S
C3073  C3115   1.522   .     S
C3073  C3152   1.602   .     S
C3074  C3145   1.377   .     S
C3074  C3107   1.407   .     S
C3074  C3096   1.432   .     S
N3075  C3145   1.114   .     S
H3076  C3141   1.092   .     S
C3077  C3138   1.405   .     S
C3077  O3150   1.431   .     S
C3077  C3120   1.406   .     S
H3078  C3148   1.110   .     S
C3080  H3151   1.067   .     S
C3080  C3104   1.389   .     S
H3081  C3175   1.116   .     S
C3082  H3092   1.141   .     S
C3082  C3100   1.474   .     S
C3082  H3157   1.114   .     S
C3082  H3108   1.078   .     S
C3083  H3177   1.077   .     S
C3083  H3199   1.098   .     S
C3083  H3149   1.143   .     S
H3084  C3203   1.069   .     S
H3085  C3152   1.089   .     S
N3086  C3197   1.195   .     S
N3087  C3192   1.209   .     S
C3089  C3220   1.439   .     S
C3089  O3193   1.383   .     S
C3089  C3179   1.373   .     S
H3090  C3219   1.086   .     S
H3091  C3144   1.127   .     S
C3093  C3153   1.400   .     S
C3093  C3176   1.383   .     S
C3093  C3189   1.528   .     S
H3094  C3191   1.079   .     S
H3095  C5228   1.089   1_545 S
C3096  C3114   1.415   .     S
C3096  O3193   1.383   .     S
C3097  O3205   1.379   .     S
C3097  C3168   1.398   .     S
C3097  C3791   1.416   .     S
H3098  C3219   1.068   .     S
C3099  C3102   1.326   .     S
C3099  H3173   1.116   .     S
C3099  C3122   1.430   .     S
C3100  C3158   1.562   .     S
C3100  C3121   1.561   .     S
H3101  C3203   1.101   .     S
C3103  C3129   1.389   .     S
C3103  C3194   1.431   .     S
C3103  O3150   1.388   .     S
C3104  C3187   1.382   .     S
C3104  O3167   1.386   .     S
C3105  C3185   1.339   .     S
C3105  H3147   1.093   .     S
C3105  C3204   1.441   .     S
C3106  N3170   1.175   .     S
C3106  C3168   1.344   .     S
C3107  C3125   1.395   .     S
C3107  O3167   1.339   .     S
H3109  C3158   1.124   .     S
C3110  H3163   1.081   .     S
C3110  C3212   1.446   .     S
C3110  H3218   1.041   .     S
C3110  H3116   1.143   .     S
O3111  C3190   1.355   .     S
O3111  C3143   1.379   .     S
H3112  C3201   1.092   .     S
H3113  C3152   1.106   .     S
C3114  O3227   1.391   .     S
C3114  C3183   1.408   .     S
C3115  C3164   1.409   .     S
C3115  C3122   1.407   .     S
H3117  C3141   1.124   .     S
O3118  C3138   1.360   .     S
O3118  C3129   1.376   .     S
H3119  C3148   1.103   .     S
C3120  H3196   1.063   .     S
C3120  C5052   1.386   1_545 S
C3121  C3185   1.386   .     S
C3121  C3184   1.378   .     S
C3122  C3188   1.571   .     S
N3123  C3701   1.141   .     S
H3124  C3186   1.051   .     S
C3125  O3178   1.372   .     S
C3125  C3183   1.398   .     S
H3126  C3132   1.092   .     S
H3127  C3216   1.104   .     S
C3129  C3136   1.417   .     S
O3130  C3213   1.409   .     S
O3130  C3879   1.362   .     S
H3131  C3148   1.099   .     S
C3132  H3159   1.095   .     S
H3133  C3186   1.117   .     S
C3134  N3162   1.182   .     S
C3134  C3136   1.416   .     S
C3135  H3325   1.137   .     S
C3135  H3202   1.092   .     S
C3135  C3189   1.592   .     S
C3136  C3142   1.395   .     S
N3137  C3154   1.171   .     S
C3138  C3206   1.393   .     S
O3139  C3181   1.409   .     S
O3139  C3142   1.372   .     S
H3140  C3221   1.104   .     S
C3141  H3200   1.079   .     S
C3142  C3143   1.374   .     S
C3143  C3194   1.416   .     S
C3144  H3339   1.091   .     S
C3144  C3189   1.489   .     S
C3144  C3324   1.570   .     S
H3146  C3158   1.077   .     S
C3148  C3210   1.479   .     S
C3152  C3188   1.509   .     S
C3153  C3175   1.396   .     S
C3154  C3183   1.403   .     S
H3155  C3191   1.068   .     S
H3156  C3164   1.133   .     S
C3158  C3188   1.523   .     S
H3160  C3216   1.097   .     S
H3161  C3191   1.096   .     S
H3165  C3208   1.112   .     S
C3166  O3211   1.426   .     S
C3166  C3204   1.389   .     S
C3166  C3184   1.409   .     S
C3168  C3213   1.389   .     S
H3169  C3203   1.073   .     S
H3171  C3176   1.161   .     S
H3172  C3184   1.082   .     S
H3174  C5130   1.092   1_545 S
C3175  C3190   1.386   .     S
C3176  C3181   1.396   .     S
O3178  C3187   1.424   .     S
C3179  C3180   1.405   .     S
C3179  H3198   1.116   .     S
C3180  C3189   1.557   .     S
C3180  C3319   1.395   .     S
C3181  C3190   1.440   .     S
C3182  C3216   1.527   .     S
C3182  C3219   1.561   .     S
C3182  C3191   1.504   .     S
C3185  C3188   1.534   .     S
C3186  H3207   1.089   .     S
C3187  C3201   1.383   .     S
C3192  C3194   1.400   .     S
C3195  C3224   1.405   .     S
C3195  C3223   1.386   .     S
C3197  C5820   1.468   .     S
C3203  C3212   1.534   .     S
C3204  O5176   1.385   1_545 S
O3205  C3223   1.429   .     S
C3206  H3231   1.115   .     S
C3206  C5056   1.393   1_545 S
C3208  H3225   1.108   .     S
C3208  H3745   1.126   .     S
C3208  C3210   1.551   .     S
H3209  C3226   1.082   .     S
C3210  C3224   1.535   .     S
C3210  C3226   1.559   .     S
O3211  C5136   1.420   1_545 S
C3212  C5130   1.582   1_545 S
C3212  C5229   1.492   1_545 S
C3213  C3835   1.396   .     S
H3215  C3326   1.061   .     S
N3217  C3845   1.163   .     S
C3220  O3227   1.411   .     S
C3220  C3329   1.372   .     S
H3222  C3721   1.132   .     S
C3223  C3769   1.455   .     S
C3224  C3837   1.389   .     S
C3226  H3889   1.087   .     S
C3226  C3730   1.500   .     S
O3228  C2468   1.433   1_545 S
H3229  C5228   1.135   1_545 S
H3230  C2516   1.119   1_545 S
H3232  C8074   1.179   1_545 S
H3233  C3271   1.132   .     S
H3234  C3298   1.115   .     S
H3235  C3280   1.165   .     S
H3236  C3246   1.101   .     S
C3237  C3312   1.374   .     S
C3237  C3255   1.512   .     S
C3237  C3243   1.376   .     S
N3238  C3323   1.167   .     S
C3239  H3296   1.074   .     S
C3239  H3313   1.127   .     S
C3239  C3255   1.535   .     S
C3239  H3284   1.074   .     S
H3240  C3317   1.147   .     S
C3241  N3286   1.148   .     S
C3241  C3315   1.429   .     S
H3242  C3298   1.098   .     S
C3243  C3252   1.562   .     S
C3243  C3297   1.388   .     S
C3244  C3269   1.505   .     S
C3244  H3254   1.129   .     S
C3244  H3291   1.080   .     S
C3244  H3265   1.061   .     S
H3245  C3268   1.072   .     S
C3246  H3320   1.058   .     S
C3246  C3269   1.546   .     S
H3247  C3285   1.056   .     S
C3248  C3300   1.364   .     S
C3248  C3252   1.501   .     S
C3248  C3266   1.412   .     S
C3249  C3272   1.369   .     S
C3249  O3330   1.373   .     S
C3249  C2760   1.405   1_556 S
C3250  H3308   1.076   .     S
C3250  H3306   1.102   .     S
C3250  C3255   1.491   .     S
C3250  C3252   1.548   .     S
H3251  C3282   1.115   .     S
C3252  C3280   1.508   .     S
O3253  C3261   1.419   .     S
O3253  C3314   1.388   .     S
C3255  C3268   1.560   .     S
O3256  C3278   1.383   .     S
O3256  C3311   1.373   .     S
H3257  C3289   1.125   .     S
H3258  C3327   1.103   .     S
C3259  C3280   1.532   .     S
C3259  C3282   1.549   .     S
C3259  C3263   1.553   .     S
C3259  C3266   1.511   .     S
C3260  C3293   1.485   .     S
C3260  C3271   1.343   .     S
C3260  C5362   1.400   1_545 S
C3261  C3271   1.424   .     S
C3261  C5278   1.419   1_545 S
H3262  C3327   1.070   .     S
C3263  H3288   1.203   .     S
C3263  H3277   1.100   .     S
C3263  H3301   1.114   .     S
H3264  C3303   1.115   .     S
C3266  C3303   1.418   .     S
H3267  C3268   1.079   .     S
C3268  H3287   1.072   .     S
C3269  C3338   1.555   .     S
C3269  C3285   1.525   .     S
H3270  C3285   1.098   .     S
C3272  H3321   1.098   .     S
C3272  C2827   1.352   1_556 S
H3273  C3292   1.112   .     S
H3274  C3289   1.066   .     S
H3275  C3292   1.137   .     S
H3276  C3282   1.120   .     S
C3278  C3304   1.466   .     S
C3278  C3300   1.378   .     S
H3279  C3329   1.132   .     S
C3280  H3283   1.069   .     S
H3281  C3297   1.134   .     S
C3282  H3307   1.064   .     S
C3285  H3309   1.091   .     S
C3289  C3293   1.543   .     S
C3289  H3299   1.130   .     S
H3290  O3330   0.965   .     S
C3292  H3295   1.049   .     S
C3292  C3293   1.572   .     S
C3293  C5334   1.491   1_545 S
H3294  C3317   1.099   .     S
C3297  C3328   1.395   .     S
C3298  C3324   1.545   .     S
C3298  H3305   1.061   .     S
C3300  H3302   1.123   .     S
C3303  C3304   1.388   .     S
C3304  O3316   1.418   .     S
H3310  C3327   1.066   .     S
C3311  C3331   1.409   .     S
C3311  C3333   1.380   .     S
C3312  C5846   1.396   .     S
C3312  H6009   1.164   .     S
C3314  C2782   1.381   1_556 S
C3314  C5331   1.401   1_545 S
C3315  C2752   1.395   1_556 S
O3316  C3331   1.443   .     S
C3317  C3990   1.521   .     S
C3317  H5996   1.063   .     S
H3318  C3326   1.108   .     S
C3319  C3329   1.368   .     S
C3319  C3324   1.459   .     S
H3322  C5983   1.111   .     S
C3323  C2797   1.367   1_556 S
C3324  C3326   1.542   .     S
C3326  H3332   1.109   .     S
C3327  C2805   1.518   1_556 S
C3328  C5846   1.437   .     S
C3328  O5946   1.364   .     S
C3331  C2819   1.409   1_556 S
C3333  C5997   1.435   .     S
C3333  C4835   1.380   1_546 S
H3334  C5474   1.101   1_556 S
C3340  C6169   1.395   .     S
C3340  O3506   1.405   .     S
C3340  C3445   1.370   .     S
H3341  C3342   1.067   .     S
C3342  C3354   1.384   .     S
C3342  C3343   1.410   .     S
C3343  O3437   1.381   .     S
C3343  C3348   1.369   .     S
C3344  C3378   1.442   .     S
C3344  O4042   1.344   1_554 S
C3344  C4049   1.420   1_554 S
H3345  C3447   1.114   .     S
C3346  C6037   1.435   .     S
C3346  O3506   1.395   .     S
C3346  C3478   1.384   .     S
C3347  C3353   1.484   .     S
C3347  C3354   1.512   .     S
C3347  C3438   1.534   .     S
C3347  C3368   1.528   .     S
C3348  C3360   1.371   .     S
C3348  O3467   1.425   .     S
C3349  H3412   1.150   .     S
C3349  H3475   1.091   .     S
H3350  C3441   1.110   .     S
C3351  C3444   1.393   .     S
C3351  C3918   1.373   1_554 S
C3351  O4058   1.432   1_554 S
C3352  H3491   1.074   .     S
C3352  H3432   1.116   .     S
C3352  H3440   1.148   .     S
C3352  C3405   1.531   .     S
C3353  H3462   1.138   .     S
C3353  H3407   1.096   .     S
C3353  H3356   1.114   .     S
C3354  C3433   1.414   .     S
H3355  C3419   1.116   .     S
H3357  C3445   1.087   .     S
C3358  N3495   1.183   .     S
C3358  C3516   1.412   .     S
C3359  O3398   1.345   .     S
C3359  C3394   1.417   .     S
C3359  C3393   1.379   .     S
C3360  H3367   1.170   .     S
C3360  C3433   1.337   .     S
H3361  C3393   1.068   .     S
H3362  C3496   1.062   .     S
C3363  C6183   1.551   .     S
C3363  C3377   1.580   .     S
C3363  H3383   1.095   .     S
C3363  H3403   1.108   .     S
C3364  O3450   1.431   .     S
C3364  C3501   1.398   .     S
C3364  C3454   1.432   .     S
H3365  C3456   1.094   .     S
C3368  H3369   1.100   .     S
C3368  H3388   1.145   .     S
C3368  H3390   1.172   .     S
C3370  C3483   1.413   .     S
C3370  C3466   1.388   .     S
C3370  C3473   1.521   .     S
H3371  C3517   1.089   .     S
C3372  C3479   1.398   .     S
C3372  O3458   1.359   .     S
C3372  C3410   1.413   .     S
H3373  C3479   1.090   .     S
H3374  C3399   1.105   .     S
C3375  C3419   1.457   .     S
C3375  C3510   1.529   .     S
C3375  C3486   1.542   .     S
N3376  C3406   1.147   .     S
C3377  C3425   1.474   .     S
C3377  C3427   1.541   .     S
C3377  C3447   1.510   .     S
C3378  C3424   1.360   .     S
C3378  O3401   1.420   .     S
H3379  C3451   1.084   .     S
N3380  C3459   1.176   .     S
C3381  O3400   1.384   .     S
C3381  C3385   1.392   .     S
C3381  C3421   1.429   .     S
H3382  C3480   1.170   .     S
H3384  C3452   1.158   .     S
C3385  C3459   1.462   .     S
C3385  C3505   1.362   .     S
H3386  C3429   1.123   .     S
H3387  C3417   1.082   .     S
H3389  C3456   1.129   .     S
H3391  C3409   1.160   .     S
C3392  C6135   1.399   .     S
C3392  O3504   1.390   .     S
C3392  C3478   1.419   .     S
C3393  C3425   1.412   .     S
C3394  O3500   1.378   .     S
C3394  C3496   1.354   .     S
H3395  C4039   1.082   1_554 S
C3396  O3467   1.387   .     S
C3396  C3435   1.390   .     S
C3397  C3501   1.375   .     S
C3397  C3515   1.428   .     S
O3398  H3420   0.954   .     S
C3399  H3442   1.088   .     S
C3399  C3405   1.527   .     S
C3399  H3453   1.072   .     S
O3400  C3408   1.383   .     S
O3401  C3422   1.386   .     S
H3402  C3451   1.086   .     S
H3404  C3446   1.137   .     S
C3405  C3415   1.523   .     S
C3405  C3452   1.582   .     S
C3406  C3481   1.389   .     S
C3408  C3519   1.418   .     S
C3408  C3441   1.373   .     S
C3409  C3434   1.492   .     S
C3409  C4134   1.545   .     S
C3409  H3514   1.118   .     S
C3410  O3450   1.367   .     S
C3410  C3417   1.421   .     S
C3411  O3443   1.393   .     S
C3411  C3502   1.410   .     S
H3413  C3510   1.159   .     S
H3414  C3447   1.130   .     S
C3415  C3417   1.409   .     S
C3415  C3460   1.379   .     S
H3416  C3486   1.076   .     S
H3418  C3480   1.110   .     S
C3419  H3490   1.144   .     S
C3419  H3485   1.079   .     S
C3421  C3692   1.342   .     S
C3421  O6088   1.372   .     S
C3423  C3480   1.507   .     S
C3423  C3483   1.571   .     S
C3423  C3428   1.567   .     S
C3423  C3992   1.484   1_554 S
C3424  C3428   1.400   .     S
C3424  H3426   1.103   .     S
C3425  C3503   1.391   .     S
C3427  C6181   1.392   .     S
C3427  C3445   1.391   .     S
C3428  C4050   1.396   1_554 S
C3429  C3434   1.514   .     S
C3429  H3907   1.124   1_554 S
C3429  H4060   1.155   1_554 S
O3430  C3518   1.383   .     S
O3430  C3511   1.371   .     S
C3433  C3439   1.527   .     S
C3434  C4124   1.562   .     S
C3434  C3456   1.542   .     S
C3435  C3657   1.441   .     S
H3436  C3438   1.106   .     S
C3438  H3468   1.116   .     S
C3438  C3439   1.562   .     S
C3439  C3452   1.536   .     S
C3439  C3460   1.518   .     S
C3441  C6191   1.346   .     S
O3443  C3444   1.445   .     S
C3444  C3481   1.410   .     S
C3446  H3493   1.094   .     S
C3446  H3482   1.102   .     S
C3446  C3473   1.577   .     S
C3447  C3487   1.571   .     S
C3448  C3515   1.354   .     S
C3448  C3454   1.375   .     S
C3448  C3477   1.398   .     S
O3449  C3505   1.370   .     S
O3449  C3584   1.409   .     S
C3451  H3463   1.102   .     S
C3451  C3473   1.521   .     S
C3452  H3472   1.143   .     S
C3454  O3458   1.378   .     S
H3455  C3466   1.114   .     S
C3456  H3520   1.076   .     S
C3460  C3479   1.341   .     S
H3461  C1161   1.099   1_554 S
O3464  C3498   1.405   .     S
O3464  C3494   1.395   .     S
H3465  C3679   1.003   .     S
C3466  C3494   1.377   .     S
H3469  C3517   1.095   .     S
C3470  H3499   1.097   .     S
C3470  C3502   1.402   .     S
C3473  C3480   1.530   .     S
H3474  C3486   1.091   .     S
C3476  C3494   1.343   .     S
C3476  C3977   1.391   1_554 S
C3476  O4043   1.410   1_554 S
C3477  N3488   1.132   .     S
C3481  C3498   1.366   .     S
C3483  C3977   1.376   1_554 S
H3484  C4092   1.119   .     S
C3486  H3492   1.063   .     S
C3487  C3503   1.543   .     S
C3487  C3585   1.564   .     S
C3496  C3503   1.413   .     S
H3497  O3500   0.997   .     S
C3498  C4061   1.392   1_554 S
C3501  C3512   1.457   .     S
C3502  O4058   1.424   1_554 S
O3504  C4007   1.399   1_554 S
C3505  C3627   1.408   .     S
C3507  H3509   1.114   .     S
C3507  C3511   1.415   .     S
C3507  C4219   1.475   .     S
H3508  C3510   1.090   .     S
C3511  C3522   1.366   .     S
C3512  N4205   1.173   .     S
H3513  C3968   1.136   1_554 S
C3516  C3518   1.364   .     S
C3516  C3680   1.401   .     S
C3518  C3694   1.455   .     S
C3519  C6186   1.350   .     S
C3519  O6088   1.422   .     S
H3521  C4098   1.049   .     S
C3522  O3557   1.390   .     S
C3522  C4220   1.387   .     S
H3523  C3585   1.093   .     S
H3524  C3707   1.073   .     S
C3525  C3562   1.404   .     S
C3525  H3573   1.141   .     S
C3525  C3634   1.377   .     S
C3526  C3576   1.338   .     S
C3526  C3579   1.373   .     S
C3526  C3571   1.536   .     S
C3527  O3537   1.422   .     S
C3527  C4357   1.412   .     S
C3527  C3602   1.456   .     S
C3528  H3530   1.077   .     S
C3528  H3621   1.131   .     S
C3528  C3624   1.493   .     S
C3528  H3599   1.097   .     S
C3531  O3690   1.369   .     S
C3531  C3881   1.374   .     S
C3532  H3548   1.156   .     S
C3532  H3633   1.080   .     S
C3532  H3560   1.130   .     S
C3532  C3618   1.488   .     S
H3533  C3540   1.126   .     S
H3534  C3608   1.139   .     S
C3535  H3587   1.070   .     S
C3535  H3623   1.086   .     S
C3535  C3640   1.533   .     S
C3535  C3571   1.525   .     S
C3536  C3552   1.395   .     S
C3536  N3688   1.189   .     S
O3537  C3612   1.393   .     S
H3538  C3539   1.069   .     S
C3539  H3543   1.109   .     S
C3539  H3660   1.061   .     S
C3539  C3640   1.531   .     S
C3540  C3610   1.409   .     S
C3540  C3611   1.379   .     S
H3541  C3648   1.086   .     S
H3542  C3786   1.116   .     S
C3544  C3652   1.408   .     S
C3544  C3625   1.342   .     S
C3544  C3618   1.513   .     S
O3545  C3626   1.428   .     S
O3545  C3549   1.394   .     S
C3546  N3637   1.142   .     S
C3546  C3593   1.454   .     S
H3547  C3614   1.118   .     S
C3549  C3576   1.329   .     S
C3549  C3646   1.415   .     S
C3550  C3584   1.444   .     S
C3550  O3630   1.376   .     S
C3550  C3625   1.407   .     S
H3551  C3644   1.112   .     S
C3552  C3589   1.329   .     S
C3552  C3694   1.391   .     S
H3553  C3647   1.085   .     S
C3554  C3595   1.386   .     S
C3554  C3654   1.444   .     S
C3554  O3641   1.406   .     S
C3555  H3685   1.058   .     S
C3555  H3691   1.099   .     S
C3555  H3569   1.105   .     S
C3555  C3613   1.548   .     S
C3556  C3613   1.546   .     S
C3556  C3608   1.380   .     S
C3556  C3575   1.366   .     S
O3557  C3694   1.330   .     S
C3558  H3590   1.102   .     S
C3558  C3643   1.564   .     S
C3558  H3598   1.123   .     S
C3558  H3636   1.133   .     S
N3559  C3712   1.179   .     S
O3561  C3689   1.311   .     S
O3561  C3572   1.392   .     S
C3562  C3610   1.445   .     S
C3562  O3586   1.365   .     S
C3563  C3609   1.399   .     S
C3563  N3580   1.180   .     S
H3564  C3648   1.094   .     S
H3565  C3566   1.176   .     S
C3566  C3646   1.403   .     S
C3566  C3579   1.414   .     S
H3567  C3614   1.065   .     S
H3568  C3645   1.134   .     S
H3570  C3645   1.061   .     S
C3571  C3615   1.524   .     S
C3571  C3634   1.555   .     S
C3572  C3639   1.429   .     S
C3572  C3695   1.393   .     S
H3574  C3585   1.124   .     S
C3575  C3605   1.378   .     S
C3575  C3606   1.562   .     S
C3576  H3603   1.113   .     S
H3577  C3650   1.118   .     S
H3578  C3645   1.102   .     S
C3579  C3640   1.539   .     S
C3581  C3689   1.466   .     S
C3581  C3600   1.409   .     S
C3581  O3591   1.401   .     S
H3582  C3632   1.125   .     S
H3583  C3682   1.143   .     S
C3584  C3644   1.382   .     S
C3585  H3676   1.095   .     S
O3586  C3654   1.376   .     S
C3588  H3662   1.094   .     S
C3588  C3613   1.558   .     S
C3588  C3606   1.491   .     S
C3588  H3683   1.086   .     S
C3589  O3665   1.401   .     S
C3589  C3680   1.407   .     S
O3591  C3639   1.433   .     S
O3592  C3697   1.373   .     S
O3592  C3649   1.442   .     S
C3593  C3612   1.459   .     S
C3593  C3671   1.381   .     S
H3594  C3673   1.086   .     S
C3595  C3686   1.440   .     S
H3596  C3704   1.084   .     S
C3597  C3658   1.370   .     S
C3597  C3667   1.395   .     S
C3597  C3712   1.438   .     S
C3600  H3655   1.070   .     S
C3601  C3608   1.398   .     S
C3601  C3604   1.430   .     S
C3601  O3706   1.382   .     S
C3602  O3670   1.386   .     S
C3602  C3650   1.379   .     S
C3604  C3605   1.369   .     S
C3604  O3665   1.392   .     S
C3605  H3622   1.072   .     S
C3606  C3652   1.510   .     S
C3606  C3648   1.484   .     S
H3607  C3708   1.135   .     S
C3609  C3656   1.378   .     S
C3609  C3639   1.383   .     S
C3610  O3641   1.355   .     S
C3611  C3624   1.536   .     S
C3611  C3634   1.385   .     S
C3612  C3658   1.343   .     S
C3613  C3679   1.579   .     S
C3614  H3642   1.135   .     S
C3614  C3640   1.533   .     S
C3615  C3624   1.531   .     S
C3615  H3635   1.087   .     S
C3615  H3619   1.105   .     S
H3616  C3679   1.116   .     S
C3617  C3710   1.334   .     S
C3617  H3631   1.069   .     S
C3617  C3675   1.405   .     S
C3618  C3645   1.524   .     S
C3618  C3648   1.567   .     S
H3620  C3632   1.122   .     S
C3624  C3632   1.526   .     S
C3625  H3629   1.139   .     S
C3627  O3630   1.382   .     S
C3627  C3692   1.390   .     S
H3628  C3632   1.077   .     S
H3638  C3707   1.085   .     S
C3643  C3717   1.524   .     S
C3643  C3708   1.510   .     S
C3643  C3707   1.562   .     S
C3644  C3652   1.387   .     S
C3646  O3709   1.428   .     S
C3647  H3674   1.119   .     S
C3647  H3719   1.065   .     S
C3647  C4333   1.604   .     S
C3649  C3656   1.438   .     S
C3649  C3695   1.425   .     S
C3650  C4391   1.379   .     S
C3651  H3684   1.103   .     S
C3651  C3689   1.330   .     S
H3653  C3678   1.120   .     S
C3654  C3659   1.355   .     S
C3656  O3669   1.420   .     S
C3657  N3681   1.142   .     S
C3658  O3670   1.433   .     S
C3659  C3664   1.346   .     S
N3661  C3664   1.156   .     S
N3663  C3686   1.149   .     S
H3666  C6351   1.093   .     S
C3667  C3671   1.400   .     S
C3667  O3690   1.381   .     S
H3668  C3673   1.091   .     S
O3669  C3675   1.388   .     S
C3671  O3714   1.415   .     S
H3672  C3678   1.105   .     S
C3673  H3696   1.146   .     S
C3675  C3697   1.418   .     S
H3677  C3682   1.042   .     S
C3678  C3882   1.484   .     S
C3678  H3693   1.044   .     S
C3679  H3705   1.101   .     S
C3680  O3706   1.454   .     S
C3682  H3699   1.056   .     S
C3682  C6323   1.549   .     S
C3687  N3698   1.195   .     S
C3692  C6371   1.449   .     S
C3695  C3701   1.389   .     S
C3697  C3721   1.392   .     S
H3700  C3713   1.137   .     S
H3702  C3708   1.116   .     S
H3703  C3708   1.136   .     S
C3704  H3720   1.112   .     S
C3704  C6323   1.539   .     S
C3704  C6367   1.560   .     S
C3707  C6367   1.539   .     S
C3710  C3739   1.491   .     S
C3710  C3756   1.387   .     S
H3711  C4238   1.126   .     S
C3713  H3715   1.120   .     S
C3713  C3739   1.516   .     S
C3713  H3823   1.097   .     S
H3716  C4370   1.103   .     S
C3717  C6307   1.360   .     S
C3717  C6211   1.367   .     S
N3718  C4351   1.147   .     S
C3721  C3756   1.410   .     S
C3722  C6286   1.511   .     S
C3723  C3851   1.400   .     S
C3723  O3737   1.430   .     S
C3723  C3830   1.372   .     S
H3724  C3787   1.094   .     S
C3725  C3849   1.450   .     S
C3725  O3737   1.446   .     S
C3725  C3994   1.393   .     S
C3726  C3835   1.424   .     S
C3726  C3791   1.386   .     S
C3726  C3831   1.320   .     S
H3727  C3786   1.101   .     S
H3728  C3767   1.067   .     S
C3729  C3744   1.401   .     S
C3729  C3863   1.380   .     S
C3729  C3928   1.389   .     S
C3730  C3756   1.498   .     S
C3730  C3762   1.565   .     S
C3730  C3837   1.498   .     S
C3731  C3740   1.406   .     S
C3731  C3752   1.458   .     S
C3731  C3760   1.524   .     S
C3732  C3842   1.382   .     S
C3732  N4571   1.175   .     S
C3733  C3757   1.372   .     S
C3733  C3805   1.420   .     S
C3733  C3845   1.408   .     S
H3734  C3827   1.083   .     S
H3735  C3790   1.071   .     S
H3736  C3840   1.143   .     S
C3738  C3864   1.372   .     S
C3738  O3779   1.361   .     S
C3738  C3750   1.423   .     S
C3739  C3762   1.532   .     S
C3739  C3786   1.465   .     S
C3740  H3778   1.122   .     S
C3740  C3851   1.392   .     S
H3741  C3762   1.064   .     S
H3742  C4066   1.098   .     S
H3743  C3840   1.133   .     S
C3744  N3833   1.196   .     S
C3746  C3781   1.418   .     S
C3746  C6385   1.477   .     S
C3746  C3770   1.373   .     S
H3747  C3854   1.098   .     S
N3748  C3764   1.155   .     S
H3749  C3854   1.061   .     S
C3750  O3841   1.400   .     S
C3750  C3780   1.391   .     S
H3751  C3754   1.111   .     S
C3752  C3830   1.403   .     S
C3752  C3776   1.506   .     S
H3753  C3827   1.139   .     S
C3754  H3794   1.081   .     S
C3754  H3850   1.068   .     S
C3754  C3846   1.530   .     S
C3755  O3841   1.429   .     S
C3755  C3801   1.418   .     S
C3755  C3757   1.426   .     S
C3757  O3779   1.424   .     S
C3758  H3795   1.122   .     S
C3758  C3777   1.379   .     S
C3758  C3857   1.371   .     S
C3759  O3793   1.386   .     S
C3759  C3829   1.367   .     S
C3759  C3822   1.424   .     S
C3760  C3857   1.526   .     S
C3760  C3860   1.536   .     S
C3760  C3847   1.587   .     S
C3761  C3839   1.509   .     S
C3761  C3780   1.371   .     S
C3761  C3824   1.390   .     S
C3762  H3785   1.164   .     S
H3763  C3790   1.071   .     S
C3764  C3801   1.448   .     S
C3765  C3866   1.522   .     S
C3765  H3887   1.088   .     S
C3765  H3826   1.099   .     S
C3765  H3873   1.118   .     S
H3766  C6507   1.113   .     S
C3767  C3776   1.582   .     S
C3767  H3883   1.050   .     S
C3767  H3852   1.057   .     S
O3768  C3861   1.421   .     S
O3768  C3777   1.365   .     S
C3769  O3865   1.389   .     S
C3769  C3834   1.379   .     S
C3770  C3774   1.399   .     S
C3770  C6549   1.484   .     S
H3771  C3786   1.129   .     S
H3772  C3799   1.131   .     S
C3773  C3846   1.520   .     S
C3773  C3857   1.438   .     S
C3773  C3788   1.381   .     S
C3774  H3885   1.105   .     S
C3774  C3804   1.424   .     S
H3775  C3829   1.060   .     S
C3776  C3860   1.533   .     S
C3776  C3790   1.549   .     S
C3777  C3867   1.387   .     S
C3780  H3838   1.130   .     S
C3781  C3817   1.473   .     S
C3781  H3797   1.130   .     S
H3782  C3808   1.058   .     S
O3783  C3835   1.365   .     S
O3783  C3877   1.367   .     S
C3784  C3801   1.395   .     S
C3784  O3815   1.405   .     S
C3784  C3805   1.404   .     S
C3787  C3892   1.536   .     S
C3787  H3803   1.103   .     S
C3787  C3882   1.545   .     S
C3788  H3858   1.182   .     S
C3788  C3867   1.368   .     S
C3789  C3829   1.417   .     S
C3789  C3866   1.454   .     S
C3789  C3862   1.427   .     S
C3790  H3870   1.082   .     S
C3791  O3865   1.422   .     S
H3792  C3881   1.083   .     S
O3793  C3856   1.370   .     S
H3796  C3847   1.101   .     S
O3798  C3822   1.405   .     S
O3798  C3868   1.452   .     S
C3799  H3875   1.062   .     S
C3799  H3800   1.094   .     S
C3799  C3859   1.540   .     S
H3802  C3808   1.055   .     S
C3804  O3871   1.372   .     S
C3804  C3817   1.403   .     S
C3805  O3871   1.370   .     S
H3806  C3844   1.152   .     S
H3807  C4578   1.104   .     S
C3808  H3812   1.119   .     S
C3808  C3859   1.586   .     S
H3809  C3821   1.095   .     S
N3810  C3831   1.144   .     S
C3811  H6432   1.105   .     S
C3811  C4576   1.396   .     S
C3811  C4537   1.407   .     S
C3813  C6478   1.570   .     S
C3813  H3848   1.135   .     S
C3813  H3853   1.104   .     S
C3813  H3874   1.132   .     S
O3814  C3863   1.419   .     S
O3814  C3867   1.403   .     S
O3815  C3817   1.394   .     S
H3816  C3830   1.112   .     S
H3818  C3860   1.154   .     S
H3819  C3860   1.074   .     S
H3820  C3847   1.141   .     S
C3821  H3891   1.068   .     S
C3821  C3882   1.499   .     S
C3821  H3886   1.060   .     S
C3822  C3836   1.378   .     S
C3824  C3859   1.483   .     S
C3824  C3864   1.344   .     S
O3825  C3851   1.425   .     S
O3825  C3849   1.381   .     S
C3827  C3859   1.493   .     S
C3827  C3839   1.478   .     S
H3828  C3844   1.131   .     S
H3832  C3836   1.073   .     S
C3834  C3837   1.361   .     S
C3834  H3843   1.114   .     S
C3836  C3862   1.406   .     S
C3839  C3854   1.552   .     S
C3839  C3862   1.565   .     S
C3840  H3855   1.102   .     S
C3840  C3846   1.559   .     S
C3842  C3856   1.380   .     S
C3842  C3878   1.390   .     S
C3844  C3866   1.530   .     S
C3844  H3872   1.121   .     S
C3846  C3847   1.525   .     S
C3849  C3980   1.375   .     S
C3854  C3866   1.478   .     S
C3856  C3868   1.421   .     S
C3861  C3863   1.394   .     S
C3861  C3888   1.450   .     S
C3864  H3876   1.112   .     S
C3868  C4032   1.373   .     S
C3869  C4066   1.369   .     S
C3869  C6549   1.514   .     S
C3869  C4062   1.432   .     S
C3877  C3879   1.385   .     S
C3878  O4641   1.392   .     S
C3878  C3929   1.424   .     S
C3882  C6378   1.525   .     S
H3884  C6426   1.118   .     S
C3888  C4053   1.415   .     S
C3888  C4035   1.414   .     S
N3890  C3970   1.134   .     S
C3892  C6405   1.580   .     S
C3892  C4540   1.532   .     S
C3892  C4576   1.528   .     S
H3893  C3960   1.139   .     S
C3894  H3991   1.111   .     S
C3894  H3899   1.083   .     S
C3894  C3945   1.542   .     S
C3894  C3946   1.588   .     S
N3895  C4044   1.142   .     S
H3896  C4049   1.110   .     S
N3897  C3942   1.185   .     S
C3898  C3969   1.406   .     S
C3898  O3900   1.420   .     S
C3898  C3937   1.351   .     S
O3900  C3962   1.436   .     S
C3901  H3981   1.065   .     S
C3901  C3934   1.514   .     S
C3901  H3935   1.123   .     S
C3901  H4017   1.104   .     S
C3903  H4014   1.020   .     S
C3903  H3948   1.137   .     S
C3903  C3913   1.526   .     S
C3903  H3999   1.140   .     S
C3904  C3968   1.393   .     S
C3904  O4231   1.337   1_556 S
H3905  C4023   1.107   .     S
C3906  C3913   1.506   .     S
C3906  C3946   1.555   .     S
C3906  H3976   1.123   .     S
C3906  H3939   1.130   .     S
H3907  C3429   1.124   1_556 S
H3908  C3985   1.086   .     S
C3909  C3971   1.406   .     S
C3909  C3937   1.400   .     S
C3909  C3913   1.564   .     S
C3910  C6637   1.380   .     S
C3910  C3990   1.510   .     S
C3910  C3986   1.354   .     S
C3911  C3943   1.565   .     S
C3911  H4029   1.102   .     S
C3911  H3920   1.083   .     S
C3911  H3959   1.132   .     S
C3912  C3943   1.552   .     S
C3912  C3938   1.558   .     S
C3912  H4021   1.088   .     S
C3912  H3914   1.065   .     S
C3913  C3950   1.526   .     S
C3915  C3916   1.393   .     S
C3915  C3995   1.405   .     S
C3915  C4016   1.381   .     S
C3916  N4030   1.166   .     S
H3917  C3930   1.079   .     S
C3918  C4061   1.408   .     S
C3918  C4044   1.464   .     S
C3918  C3351   1.373   1_556 S
C3919  C3994   1.392   .     S
C3919  N4047   1.176   .     S
O3921  C4035   1.414   .     S
O3921  C3987   1.418   .     S
H3922  C6714   1.105   .     S
H3923  C3979   1.103   .     S
H3925  C3992   1.107   .     S
H3926  C4012   1.114   .     S
O3927  C4036   1.374   .     S
O3927  C4006   1.389   .     S
C3928  O3949   1.373   .     S
C3928  C4035   1.413   .     S
C3929  C4032   1.374   .     S
C3930  H3932   1.141   .     S
C3930  C3945   1.524   .     S
C3930  H4026   1.052   .     S
H3931  C4024   1.049   .     S
H3933  C4001   1.117   .     S
C3934  C4063   1.544   .     S
H3936  C3940   1.097   .     S
C3937  H3941   1.108   .     S
C3938  C4664   1.561   .     S
C3938  C3985   1.568   .     S
C3938  C3965   1.581   .     S
C3940  C3963   1.358   .     S
C3940  C3954   1.330   .     S
C3942  C4032   1.391   .     S
C3943  C4019   1.512   .     S
C3943  C4012   1.553   .     S
H3944  C3960   1.102   .     S
C3945  C4025   1.558   .     S
C3945  C3960   1.546   .     S
C3946  C3971   1.521   .     S
C3946  C3963   1.536   .     S
O3947  C3975   1.369   .     S
O3947  C3997   1.408   .     S
O3949  C3954   1.435   .     S
C3950  H4015   1.111   .     S
C3950  H3989   1.051   .     S
C3950  H3998   1.110   .     S
H3951  C3955   1.121   .     S
O3952  C3969   1.305   .     S
O3952  C4010   1.395   .     S
C3953  H4052   1.107   .     S
C3953  H4747   1.105   .     S
C3953  C4040   1.510   .     S
C3953  H4757   1.087   .     S
C3954  C3987   1.432   .     S
C3955  H4054   1.193   .     S
C3955  H4005   1.086   .     S
C3955  C4040   1.547   .     S
C3956  N4027   1.169   .     S
C3956  C4243   1.432   1_556 S
H3957  C4012   1.119   .     S
C3958  C4022   1.364   .     S
C3958  N4034   1.146   .     S
C3960  H3967   1.078   .     S
H3961  C4023   1.038   .     S
C3962  C4010   1.441   .     S
C3962  C3983   1.382   .     S
C3963  C4025   1.335   .     S
C3964  O4020   1.325   .     S
C3964  C4036   1.447   .     S
C3964  C4055   1.415   .     S
C3965  C4019   1.363   .     S
C3965  C3974   1.388   .     S
C3966  C3980   1.390   .     S
C3966  C3975   1.464   .     S
C3966  O4064   1.395   .     S
C3968  C4063   1.394   .     S
C3968  H3513   1.136   1_556 S
C3969  C4000   1.388   .     S
C3970  C3982   1.352   .     S
C3971  C4000   1.425   .     S
H3972  C3992   1.105   .     S
H3973  C3988   1.119   .     S
C3974  C3996   1.397   .     S
C3974  H4741   1.128   .     S
C3975  C3994   1.353   .     S
C3977  H4048   1.105   .     S
C3977  C3476   1.391   1_556 S
C3977  C3483   1.376   1_556 S
F3978  C3993   1.355   .     S
C3979  C3990   1.530   .     S
C3979  H4046   1.074   .     S
C3979  H4013   1.060   .     S
C3980  C4700   1.424   .     S
C3982  C4006   1.401   .     S
C3982  C3993   1.388   .     S
C3983  C4031   1.325   .     S
C3983  C4003   1.399   .     S
H3984  C4023   1.094   .     S
C3985  C4040   1.599   .     S
C3985  H4002   1.083   .     S
C3986  H4065   1.108   .     S
C3986  C4007   1.399   .     S
C3987  C3988   1.389   .     S
C3988  C4025   1.386   .     S
C3990  C6714   1.558   .     S
C3992  C4028   1.560   .     S
C3992  C3423   1.484   1_556 S
C3993  C3995   1.375   .     S
C3995  F4011   1.350   .     S
C3996  C3997   1.408   .     S
C3996  O4064   1.371   .     S
C3997  C4001   1.378   .     S
C4000  H4018   1.167   .     S
C4001  C4019   1.396   .     S
C4003  C4033   1.395   .     S
C4003  O4715   1.398   .     S
H4004  C4642   1.101   .     S
C4006  C4016   1.400   .     S
C4007  C6700   1.387   .     S
C4007  O3504   1.399   1_556 S
H4008  C4024   1.152   .     S
H4009  C4012   1.052   .     S
C4010  C4022   1.369   .     S
C4016  O4020   1.369   .     S
C4022  C4033   1.399   .     S
C4023  C4028   1.511   .     S
C4028  C4039   1.503   .     S
C4028  C4050   1.554   .     S
C4031  N4037   1.147   .     S
C4033  O4056   1.393   .     S
C4036  C4066   1.366   .     S
H4038  C4039   1.144   .     S
C4039  H4041   1.094   .     S
C4039  H3395   1.082   1_556 S
C4040  C4688   1.504   .     S
O4042  C3344   1.344   1_556 S
O4042  C2774   1.464   1_556 S
O4043  C4061   1.407   .     S
O4043  C3476   1.410   1_556 S
N4045  C6712   1.142   .     S
C4049  C4050   1.379   .     S
C4049  C3344   1.420   1_556 S
C4050  C3428   1.396   1_556 S
N4051  C4053   1.186   .     S
C4055  C4062   1.390   .     S
C4055  H4057   1.144   .     S
O4056  C4591   1.456   .     S
O4058  C3351   1.432   1_556 S
O4058  C3502   1.424   1_556 S
H4060  C3429   1.155   1_556 S
C4061  C3498   1.392   1_556 S
C4062  C6599   1.523   .     S
C4067  H4073   1.120   .     S
C4067  H4106   1.068   .     S
C4067  H4101   1.047   .     S
C4067  C4199   1.470   .     S
H4068  C4091   1.109   .     S
C4069  H4085   1.103   .     S
C4069  H4112   1.079   .     S
C4069  C4199   1.519   .     S
C4069  H4099   1.111   .     S
C4070  O4211   1.414   .     S
C4070  C4188   1.419   .     S
H4071  C4239   1.090   .     S
N4072  C4843   1.188   .     S
H4074  C4189   1.095   .     S
H4075  C4121   1.090   .     S
C4076  C6919   1.576   .     S
C4076  H4182   1.129   .     S
C4076  C6733   1.582   .     S
C4076  H4088   1.069   .     S
C4077  C4199   1.552   .     S
C4077  C4083   1.354   .     S
C4077  C4666   1.393   1_554 S
O4078  C4104   1.364   .     S
O4078  C4208   1.391   .     S
H4079  C4151   1.119   .     S
C4080  C4134   1.503   .     S
C4080  C4124   1.443   .     S
C4080  C4638   1.427   1_554 S
H4081  C4192   1.134   .     S
H4082  C4115   1.043   .     S
C4083  C4119   1.433   .     S
C4083  H4191   1.031   .     S
H4084  C4189   1.047   .     S
C4086  C4209   1.384   .     S
C4086  C4143   1.526   .     S
C4086  C4140   1.442   .     S
H4087  C4132   1.084   .     S
H4089  C4161   1.081   .     S
H4090  C4108   1.134   .     S
C4091  C4242   1.360   .     S
C4091  C4880   1.365   .     S
C4092  C4178   1.363   .     S
C4092  C4206   1.383   .     S
C4093  H4237   1.073   .     S
C4093  C4199   1.487   .     S
C4093  H4235   1.137   .     S
C4093  C4605   1.588   1_554 S
C4094  C4207   1.423   .     S
C4094  C4179   1.434   .     S
C4094  O4186   1.416   .     S
H4095  C4349   1.092   .     S
H4096  C4151   1.090   .     S
C4097  C4181   1.412   .     S
C4097  C4192   1.422   .     S
C4097  O4195   1.364   .     S
C4098  H4225   1.108   .     S
C4098  H4228   1.083   .     S
C4098  C4172   1.604   .     S
C4100  N4214   1.138   .     S
C4100  C4165   1.431   .     S
N4102  C4116   1.180   .     S
C4103  C4113   1.552   .     S
C4103  C4108   1.545   .     S
C4103  C4184   1.481   .     S
C4103  C4161   1.539   .     S
C4104  C4178   1.433   .     S
C4104  C4210   1.417   .     S
C4105  O4195   1.450   .     S
C4105  C4179   1.361   .     S
C4105  C4130   1.398   .     S
O4107  C4240   1.422   .     S
O4107  C4119   1.410   .     S
C4108  H4117   1.099   .     S
C4108  H4136   1.152   .     S
H4109  C4125   1.152   .     S
H4110  C4159   1.113   .     S
C4111  H4190   1.106   .     S
C4111  H4241   1.094   .     S
C4111  C4180   1.481   .     S
C4111  H4263   1.110   .     S
C4113  C4210   1.383   .     S
C4113  C4206   1.398   .     S
H4114  C4161   1.101   .     S
C4115  H4196   1.146   .     S
C4115  C4143   1.487   .     S
C4115  H4122   1.127   .     S
C4116  C4216   1.435   .     S
C4118  C4242   1.511   .     S
C4118  C4153   1.574   .     S
C4118  C4277   1.510   .     S
C4119  C4650   1.401   1_554 S
O4120  C4130   1.380   .     S
O4120  C4181   1.355   .     S
C4121  C4816   1.379   .     S
H4123  C4239   1.096   .     S
C4124  C4642   1.371   1_554 S
C4125  H4148   1.101   .     S
C4125  H4185   1.113   .     S
C4125  C4143   1.592   .     S
C4126  H4138   1.143   .     S
C4126  C4140   1.344   .     S
C4126  C4147   1.447   .     S
O4127  C4178   1.398   .     S
O4127  C4221   1.404   .     S
H4128  C4209   1.072   .     S
C4129  O4217   1.391   .     S
C4129  C4847   1.409   .     S
C4129  C4152   1.425   .     S
C4130  C4135   1.388   .     S
H4131  C4153   1.083   .     S
C4132  C6750   1.528   .     S
C4132  H4224   1.123   .     S
C4132  C4172   1.556   .     S
C4133  N4222   1.142   .     S
C4133  C4179   1.404   .     S
C4134  C4206   1.521   .     S
C4134  C4184   1.511   .     S
C4135  C4281   1.404   .     S
C4135  C4207   1.398   .     S
H4137  C4139   1.155   .     S
C4139  C4141   1.424   .     S
C4139  C4149   1.371   .     S
C4140  C4144   1.538   .     S
C4141  O4176   1.369   .     S
C4141  C4163   1.382   .     S
H4142  C4145   1.102   .     S
C4143  C4145   1.524   .     S
C4144  C4167   1.516   .     S
C4144  C4149   1.547   .     S
C4144  C4145   1.540   .     S
C4145  H4162   1.102   .     S
H4146  C4161   1.065   .     S
C4147  C4203   1.428   .     S
C4147  O4269   1.374   .     S
C4149  C4168   1.377   .     S
H4150  C4153   1.145   .     S
C4151  C4158   1.529   .     S
C4151  H4198   1.099   .     S
C4152  C4232   1.357   .     S
C4152  O4186   1.412   .     S
H4154  C4189   1.110   .     S
H4156  C4227   1.109   .     S
H4157  C6721   1.047   .     S
C4158  C4168   1.597   .     S
C4158  C4189   1.578   .     S
C4158  C4167   1.512   .     S
C4159  C4163   1.381   .     S
C4159  C4168   1.398   .     S
H4160  C4184   1.088   .     S
C4163  O4211   1.399   .     S
C4164  H4861   1.105   .     S
C4164  H4204   1.075   .     S
C4164  H4236   1.110   .     S
C4165  C4240   1.423   .     S
C4165  C4762   1.384   1_554 S
H4166  C4167   1.063   .     S
C4167  H4171   1.119   .     S
H4169  C4226   1.112   .     S
C4172  C6184   1.565   .     S
C4172  C6721   1.535   .     S
H4173  C4226   1.045   .     S
C4174  C4192   1.388   .     S
C4174  C4299   1.417   .     S
C4174  C4354   1.573   .     S
C4175  C4815   1.411   .     S
C4175  N4177   1.132   .     S
O4176  C4188   1.379   .     S
C4180  C4212   1.579   .     S
C4180  C4226   1.520   .     S
C4180  C4213   1.523   .     S
C4181  C4322   1.396   .     S
H4183  C4238   1.112   .     S
C4184  H4218   1.098   .     S
H4187  C4212   1.128   .     S
H4193  C4334   1.090   .     S
H4194  C4212   1.091   .     S
H4197  C4210   1.070   .     S
O4200  C6920   1.367   .     S
O4200  C4229   1.401   .     S
N4201  C4672   1.181   1_554 S
H4202  C4212   1.074   .     S
C4203  C4209   1.406   .     S
C4203  O4371   1.359   .     S
C4207  O4217   1.415   .     S
C4208  C4216   1.451   .     S
C4208  C4221   1.357   .     S
C4213  C4219   1.395   .     S
C4213  C4220   1.352   .     S
H4215  C4220   1.125   .     S
C4216  C4229   1.395   .     S
C4221  C4243   1.392   .     S
C4227  C4230   1.411   .     S
C4227  C4848   1.395   .     S
C4229  C4234   1.367   .     S
C4230  C4826   1.405   .     S
C4230  C6919   1.532   .     S
O4231  C3904   1.337   1_554 S
O4231  C4762   1.395   1_554 S
C4232  C7690   1.337   .     S
C4232  H6847   1.084   .     S
H4233  C6822   1.161   .     S
C4234  C4243   1.349   .     S
C4234  O4629   1.428   1_554 S
C4238  H4392   1.084   .     S
C4238  C4354   1.530   .     S
C4239  H6915   1.055   .     S
C4239  C6733   1.549   .     S
C4240  C4698   1.408   1_554 S
C4242  C4339   1.368   .     S
C4243  C3956   1.432   1_554 S
C4244  C4248   1.419   .     S
C4244  O4269   1.414   .     S
C4244  C4245   1.408   .     S
C4245  C4247   1.385   .     S
C4245  C4253   1.432   .     S
C4246  C4252   1.390   .     S
C4246  C4248   1.372   .     S
C4246  C4250   1.376   .     S
C4247  C4250   1.412   .     S
C4247  O4251   1.419   .     S
C4248  O4371   1.436   .     S
H4249  C4296   1.199   .     S
C4250  O4255   1.398   .     S
O4251  C4254   1.408   .     S
C4252  N4256   1.169   .     S
C4253  N4329   1.133   .     S
C4254  C4257   1.385   .     S
C4254  C4350   1.387   .     S
O4255  C4257   1.384   .     S
C4257  C4259   1.385   .     S
C4258  C4318   1.524   .     S
C4258  C4262   1.465   .     S
C4258  C4344   1.536   .     S
C4258  C4288   1.465   .     S
C4259  C4288   1.360   .     S
C4259  H4282   1.102   .     S
C4260  C4878   1.380   .     S
C4260  C4339   1.418   .     S
C4260  H4295   1.104   .     S
H4261  C4262   1.130   .     S
C4262  H4379   1.098   .     S
C4262  H4358   1.110   .     S
C4264  O4412   1.385   .     S
C4264  C4309   1.388   .     S
C4264  C4348   1.378   .     S
C4265  C4348   1.384   .     S
C4265  C4293   1.382   .     S
C4265  O7081   1.410   .     S
H4266  C4308   1.048   .     S
C4267  H4341   1.069   .     S
C4267  C4366   1.389   .     S
C4267  C4303   1.380   .     S
C4268  C4380   1.548   .     S
C4268  C4323   1.501   .     S
C4268  C4296   1.516   .     S
C4268  C4279   1.514   .     S
H4270  C4349   1.126   .     S
H4271  C4334   1.073   .     S
H4272  C4370   1.141   .     S
H4273  C4318   1.076   .     S
O4274  C6968   1.354   .     S
O4274  C4293   1.437   .     S
C4275  N4335   1.203   .     S
C4275  C4364   1.349   .     S
H4276  C4287   1.114   .     S
C4277  C4376   1.512   .     S
C4277  H4383   1.102   .     S
C4278  C4284   1.407   .     S
C4278  C4327   1.369   .     S
C4278  C4310   1.451   .     S
C4279  H4390   1.078   .     S
C4279  H4325   1.080   .     S
C4279  H4342   1.119   .     S
H4280  C4302   1.070   .     S
C4281  N4386   1.148   .     S
H4283  C4287   1.087   .     S
C4284  O4367   1.406   .     S
C4284  C4289   1.381   .     S
H4285  C4361   1.121   .     S
H4286  C4540   1.099   .     S
C4287  C4319   1.549   .     S
C4287  H4347   1.089   .     S
C4288  C4321   1.362   .     S
C4289  O4326   1.424   .     S
C4289  C4364   1.372   .     S
H4290  C4296   1.093   .     S
H4291  C4349   1.115   .     S
H4292  C4328   1.120   .     S
C4293  C4317   1.414   .     S
H4294  C4302   1.120   .     S
C4296  H4359   1.127   .     S
H4297  C4593   1.108   .     S
C4298  C4357   1.348   .     S
C4298  C4363   1.508   .     S
C4298  C4391   1.414   .     S
C4299  C4322   1.416   .     S
C4299  C4374   1.528   .     S
C4300  C4336   1.436   .     S
C4300  C4319   1.549   .     S
C4300  C4366   1.398   .     S
H4301  C4318   1.134   .     S
C4302  C4363   1.493   .     S
C4302  C4333   1.487   .     S
C4303  C4312   1.406   .     S
C4303  O4356   1.352   .     S
H4304  C4370   1.045   .     S
C4305  H4360   1.086   .     S
C4305  C4380   1.374   .     S
H4306  C4344   1.115   .     S
H4307  C4361   1.119   .     S
C4308  C7082   1.575   .     S
C4308  H4330   1.109   .     S
C4308  H4316   1.065   .     S
C4309  O4362   1.347   .     S
C4309  C4317   1.325   .     S
C4310  N4365   1.186   .     S
H4311  C4373   1.096   .     S
C4312  C4336   1.401   .     S
C4312  O4313   1.404   .     S
O4313  C4315   1.401   .     S
C4314  N4331   1.138   .     S
C4314  C4317   1.449   .     S
C4315  C4364   1.390   .     S
C4315  C4327   1.432   .     S
C4318  H4377   1.084   .     S
C4319  C4361   1.512   .     S
C4319  C4369   1.519   .     S
H4320  C4369   1.084   .     S
C4321  C4350   1.389   .     S
C4321  C4363   1.541   .     S
C4322  H4343   1.090   .     S
C4323  H4353   1.119   .     S
C4323  H4368   1.115   .     S
H4324  C6211   1.083   .     S
O4326  C5063   1.369   .     S
C4327  O4356   1.453   .     S
C4328  C4354   1.550   .     S
C4328  C4374   1.512   .     S
C4328  H4346   1.128   .     S
C4332  N4372   1.155   .     S
C4332  C4385   1.398   .     S
C4333  C4370   1.555   .     S
C4333  C4391   1.503   .     S
C4334  C4376   1.573   .     S
C4334  H4382   1.163   .     S
C4336  H4352   1.105   .     S
C4337  O4388   1.422   .     S
C4337  C4385   1.411   .     S
H4338  C4373   1.089   .     S
C4339  C4376   1.513   .     S
H4340  C4369   1.114   .     S
C4344  C4363   1.481   .     S
C4344  H4355   1.127   .     S
H4345  C4357   1.141   .     S
C4348  C7040   1.462   .     S
C4349  C4354   1.487   .     S
C4350  H4375   1.077   .     S
C4361  H4387   1.138   .     S
O4362  C4381   1.348   .     S
C4366  C4374   1.504   .     S
O4367  C4941   1.366   .     S
C4369  C4374   1.555   .     S
C4373  H4378   1.112   .     S
C4373  C4376   1.510   .     S
C4381  C4559   1.415   .     S
C4381  C4593   1.405   .     S
H4384  C4398   1.068   .     S
C4385  C4961   1.426   .     S
H4389  C4582   1.104   .     S
H4393  C4501   1.095   .     S
C4394  C4444   1.388   .     S
C4394  C4537   1.409   .     S
C4394  O4549   1.352   .     S
H4395  C4399   1.120   .     S
H4396  C4474   1.119   .     S
H4397  C4474   1.125   .     S
C4398  H4527   1.119   .     S
C4398  H4507   1.120   .     S
C4398  C4421   1.529   .     S
C4399  C4480   1.592   .     S
C4399  C4404   1.568   .     S
C4399  H4447   1.178   .     S
C4400  C4576   1.390   .     S
C4400  C4491   1.583   .     S
C4400  C4444   1.410   .     S
C4401  H4579   1.154   .     S
C4401  C4460   1.324   .     S
C4401  C4413   1.362   .     S
C4402  H4471   1.095   .     S
C4402  H4536   1.102   .     S
C4402  C4480   1.523   .     S
C4402  H4403   1.109   .     S
C4404  C4410   1.559   .     S
C4404  C4416   1.509   .     S
C4404  C4481   1.546   .     S
N4405  C4487   1.173   .     S
C4406  C7169   1.368   .     S
C4406  O4516   1.381   .     S
C4406  C7329   1.386   .     S
H4407  C4581   1.120   .     S
H4408  C4504   1.135   .     S
H4409  C4474   1.094   .     S
C4410  H4552   1.118   .     S
C4410  C4505   1.544   .     S
C4410  H4518   1.167   .     S
H4411  C4503   1.162   .     S
O4412  C4559   1.362   .     S
C4413  C4453   1.379   .     S
H4414  C4423   1.138   .     S
H4415  C4420   1.077   .     S
C4416  C4495   1.357   .     S
C4416  C4511   1.336   .     S
H4417  C4455   1.092   .     S
H4418  C4493   1.079   .     S
H4419  C4496   1.091   .     S
C4420  C4763   1.579   .     S
C4420  H4689   1.052   .     S
C4420  C4558   1.541   .     S
C4421  C4568   1.494   .     S
C4421  C4478   1.465   .     S
C4421  C4474   1.541   .     S
C4423  H4525   1.086   .     S
C4423  C4450   1.568   .     S
C4423  H4479   1.104   .     S
C4424  H4490   1.123   .     S
C4424  C4441   1.485   .     S
C4424  H4482   1.104   .     S
C4424  H4449   1.080   .     S
H4425  C4440   1.149   .     S
N4426  C4522   1.143   .     S
C4427  O4530   1.399   .     S
C4427  C4519   1.447   .     S
C4427  C4531   1.373   .     S
H4428  C4539   1.051   .     S
H4429  C4521   1.074   .     S
H4430  C4565   1.140   .     S
H4431  C4437   1.132   .     S
C4432  O4549   1.456   .     S
C4432  C4594   1.420   .     S
C4432  C4564   1.400   .     S
C4433  C4499   1.413   .     S
C4433  O4494   1.363   .     S
C4433  C4484   1.402   .     S
H4434  C4532   1.127   .     S
H4435  C4545   1.082   .     S
C4436  C4568   1.408   .     S
C4436  C4551   1.404   .     S
C4436  C4461   1.500   .     S
C4437  C5109   1.386   .     S
C4437  C4457   1.363   .     S
H4438  C4532   1.097   .     S
C4439  C4492   1.406   .     S
C4439  C4499   1.358   .     S
C4439  C4487   1.392   .     S
C4440  H4458   1.101   .     S
C4440  H4548   1.142   .     S
C4440  C4441   1.586   .     S
C4441  C4539   1.536   .     S
C4441  C4448   1.563   .     S
H4442  C4517   1.136   .     S
N4443  C4498   1.144   .     S
C4444  H4475   1.091   .     S
H4445  C4567   1.107   .     S
H4446  C4539   1.137   .     S
C4448  C4590   1.399   .     S
C4450  C4500   1.546   .     S
C4450  C4493   1.478   .     S
C4450  C4545   1.591   .     S
O4451  C5172   1.427   .     S
O4451  C4512   1.407   .     S
H4452  C4541   1.144   .     S
C4453  C4465   1.382   .     S
C4453  C4557   1.518   .     S
H4454  C4580   1.131   .     S
C4455  H4542   1.096   .     S
C4455  C4505   1.508   .     S
C4455  H4464   1.091   .     S
H4456  C4493   1.125   .     S
C4457  O4508   1.411   .     S
C4457  C4514   1.432   .     S
H4459  C4581   1.092   .     S
C4460  O4485   1.373   .     S
C4460  C4466   1.429   .     S
C4461  C4493   1.562   .     S
C4461  C4478   1.593   .     S
C4461  C4563   1.498   .     S
C4462  N4538   1.152   .     S
C4462  C4463   1.407   .     S
C4463  C4468   1.371   .     S
C4463  C4497   1.408   .     S
C4465  H4472   1.141   .     S
C4465  C4466   1.378   .     S
C4466  O4477   1.356   .     S
O4467  C4468   1.428   .     S
O4467  C4519   1.359   .     S
C4468  C4483   1.400   .     S
H4469  C4511   1.117   .     S
C4470  C6530   1.463   .     S
C4470  C4564   1.359   .     S
C4470  O4560   1.447   .     S
H4473  C4567   1.127   .     S
H4476  C4585   1.145   .     S
O4477  C4492   1.422   .     S
C4478  H4577   1.101   .     S
C4478  H4561   1.072   .     S
C4480  C4578   1.531   .     S
C4480  C4526   1.568   .     S
C4481  C4526   1.431   .     S
C4481  C4496   1.412   .     S
C4483  C4489   1.399   .     S
C4483  O4530   1.367   .     S
C4484  C4506   1.373   .     S
C4484  C4488   1.393   .     S
O4485  C4488   1.385   .     S
C4486  C4559   1.340   .     S
C4486  C4500   1.409   .     S
C4486  H4513   1.175   .     S
C4488  C4492   1.411   .     S
C4489  C4512   1.419   .     S
C4489  C4522   1.374   .     S
C4491  C4567   1.523   .     S
C4491  C4541   1.551   .     S
C4491  C4540   1.545   .     S
O4494  C4514   1.361   .     S
C4495  C4505   1.515   .     S
C4495  C4531   1.382   .     S
C4496  C4591   1.387   .     S
C4497  C4512   1.409   .     S
C4497  O4524   1.417   .     S
C4498  C4564   1.368   .     S
C4499  O4508   1.389   .     S
C4500  C4563   1.373   .     S
C4501  H4573   1.105   .     S
C4501  H4543   1.100   .     S
C4501  C4546   1.498   .     S
H4502  C4578   1.036   .     S
C4503  C4557   1.482   .     S
C4503  H4587   1.060   .     S
C4504  C4763   1.490   .     S
C4504  H4566   1.118   .     S
C4504  C4767   1.533   .     S
C4505  C4532   1.517   .     S
C4506  N5255   1.171   .     S
H4509  C4578   1.082   .     S
H4510  C4532   1.108   .     S
C4511  C4519   1.369   .     S
C4514  C5162   1.367   .     S
H4515  C4533   1.125   .     S
O4516  C4572   1.413   .     S
C4517  C4526   1.360   .     S
C4517  C4520   1.378   .     S
C4520  C4591   1.385   .     S
C4520  O4715   1.387   .     S
C4521  H4547   1.060   .     S
C4521  H4569   1.083   .     S
C4521  C7230   1.532   .     S
H4523  C7285   1.125   .     S
O4524  C5230   1.423   .     S
H4528  C4531   1.124   .     S
H4529  C4582   1.108   .     S
C4533  H4592   1.114   .     S
C4533  H4556   1.155   .     S
C4533  C4558   1.506   .     S
H4534  C4545   1.069   .     S
H4535  C4582   1.103   .     S
C4537  O6520   1.423   .     S
C4539  C4589   1.493   .     S
C4540  H4586   1.121   .     S
C4541  H4574   1.131   .     S
C4541  H4575   1.056   .     S
H4544  C4565   1.085   .     S
C4545  H4554   1.155   .     S
C4546  C4584   1.571   .     S
H4550  C4551   1.113   .     S
C4551  C5224   1.412   .     S
H4553  C4567   1.122   .     S
H4555  C5148   1.165   .     S
C4557  C4733   1.534   .     S
C4558  C4753   1.550   .     S
C4558  C4756   1.534   .     S
O4560  C4583   1.342   .     S
H4562  C7329   1.125   .     S
C4563  C4593   1.392   .     S
C4565  H5167   1.081   .     S
C4565  C5253   1.509   .     S
C4568  C4580   1.389   .     S
H4570  C4590   1.147   .     S
C4572  C5223   1.388   .     S
C4572  C6997   1.378   .     S
C4580  C5252   1.365   .     S
C4581  H4769   1.107   .     S
C4581  C4767   1.501   .     S
C4583  C6512   1.433   .     S
C4583  C4748   1.412   .     S
C4584  H4588   1.075   .     S
C4584  C4589   1.541   .     S
C4585  H4758   1.103   .     S
C4585  H4663   1.145   .     S
C4585  C4767   1.513   .     S
C4594  O6520   1.366   .     S
C4594  C6529   1.417   .     S
O4595  C4636   1.346   .     S
O4595  C5270   1.372   .     S
C4596  H4607   1.101   .     S
C4596  C4685   1.533   .     S
C4596  C4605   1.507   .     S
C4596  H4752   1.108   .     S
C4598  C4705   1.388   .     S
C4598  C4717   1.438   .     S
C4598  O4732   1.415   .     S
H4599  C4665   1.050   .     S
C4600  C4708   1.350   .     S
C4600  C4662   1.375   .     S
C4600  O4609   1.399   .     S
O4601  C7423   1.412   .     S
O4601  C4766   1.443   .     S
C4602  C4603   1.406   .     S
C4602  C4763   1.538   .     S
C4602  C4695   1.364   .     S
C4603  C4767   1.496   .     S
C4603  C4692   1.399   .     S
C4604  C4709   1.407   .     S
C4604  C4698   1.376   .     S
C4604  C4751   1.449   .     S
C4605  C4659   1.608   .     S
C4605  C4666   1.542   .     S
C4605  C4093   1.588   1_556 S
N4606  C4742   1.141   .     S
C4608  H4628   1.111   .     S
C4608  H4680   1.077   .     S
C4608  H4674   1.098   .     S
C4608  C4647   1.629   .     S
O4609  C4620   1.352   .     S
C4610  H4694   1.141   .     S
C4610  H4651   1.111   .     S
C4610  H4613   1.040   .     S
C4610  C4702   1.498   .     S
C4611  C4754   1.423   .     S
C4611  C5279   1.511   .     S
C4611  C4622   1.367   .     S
H4612  C4695   1.106   .     S
C4614  H4740   1.092   .     S
C4614  C4647   1.565   .     S
C4614  H4720   1.062   .     S
C4614  H4630   1.113   .     S
H4615  C4739   1.039   .     S
H4616  C4744   1.101   .     S
C4617  C4701   1.426   .     S
C4617  C4721   1.372   .     S
C4617  O4677   1.418   .     S
C4618  C4712   1.432   .     S
C4618  O4738   1.419   .     S
C4618  C4642   1.365   .     S
O4619  C4621   1.419   .     S
O4619  C4708   1.370   .     S
C4620  C4626   1.393   .     S
C4620  C4621   1.426   .     S
C4621  C4627   1.365   .     S
C4622  H4673   1.130   .     S
C4622  C4624   1.411   .     S
H4623  C4748   1.084   .     S
C4624  C4691   1.432   .     S
C4624  O4732   1.387   .     S
C4625  O4736   1.435   .     S
C4625  C4686   1.396   .     S
C4625  C4721   1.376   .     S
C4626  H4644   1.128   .     S
C4626  C4646   1.393   .     S
C4627  C4643   1.367   .     S
C4627  H4731   1.135   .     S
O4629  C4234   1.428   1_556 S
O4629  C6727   1.361   1_556 S
C4631  C4708   1.406   .     S
C4631  C4742   1.401   .     S
C4631  C4750   1.372   .     S
N4632  C4683   1.166   .     S
H4633  C5272   1.131   .     S
C4634  C4636   1.394   .     S
C4634  H4684   1.127   .     S
C4634  C4667   1.434   .     S
C4635  C4710   1.541   .     S
C4635  H4657   1.049   .     S
C4636  C5268   1.423   .     S
C4637  C4706   1.389   .     S
C4637  C4718   1.373   .     S
C4637  O4671   1.393   .     S
C4638  H4755   1.053   .     S
C4638  C4712   1.366   .     S
C4638  C4080   1.427   1_556 S
H4639  C4724   1.095   .     S
H4640  C4652   1.135   .     S
C4642  C4124   1.371   1_556 S
C4643  C4647   1.545   .     S
C4643  C4646   1.390   .     S
N4645  C4737   1.180   .     S
C4646  C4653   1.549   .     S
C4647  C4739   1.521   .     S
O4648  C4712   1.391   .     S
O4648  C4750   1.329   .     S
C4649  C4685   1.555   .     S
C4649  C4659   1.360   .     S
C4649  C4697   1.362   .     S
C4650  O4707   1.372   .     S
C4650  C4660   1.372   .     S
C4650  C4119   1.401   1_556 S
C4652  C4664   1.364   .     S
C4652  C4704   1.379   .     S
C4653  C4739   1.583   .     S
C4653  C4654   1.518   .     S
C4654  H4656   1.133   .     S
C4654  C4710   1.507   .     S
C4654  H4722   1.098   .     S
H4655  C4744   1.141   .     S
N4658  C4700   1.138   .     S
C4659  C4669   1.400   .     S
C4660  H4661   1.138   .     S
C4660  C4666   1.408   .     S
C4662  C4676   1.365   .     S
C4662  C4749   1.383   .     S
C4664  C4688   1.430   .     S
C4665  C4766   1.413   .     S
C4665  C4725   1.394   .     S
C4666  C4077   1.393   1_556 S
C4667  C4753   1.369   .     S
C4667  C4763   1.527   .     S
H4668  C4745   1.106   .     S
C4669  H4670   1.086   .     S
C4669  C4728   1.447   .     S
O4671  C4704   1.345   .     S
C4672  C4705   1.420   .     S
C4672  N4201   1.181   1_556 S
N4675  C4690   1.198   .     S
C4676  N4723   1.152   .     S
O4677  C4730   1.362   .     S
C4678  C4692   1.394   .     S
C4678  C4714   1.434   .     S
C4678  O4713   1.440   .     S
H4679  C4692   1.147   .     S
C4681  C4701   1.394   .     S
C4681  C4690   1.382   .     S
C4681  C4686   1.362   .     S
H4682  C4733   1.065   .     S
C4683  C5403   1.460   .     S
C4685  C5395   1.522   .     S
C4685  C4745   1.534   .     S
C4686  O4713   1.377   .     S
H4687  C4733   1.092   .     S
C4688  C4699   1.370   .     S
C4691  O4719   1.379   .     S
C4691  C4724   1.414   .     S
H4693  C4733   1.165   .     S
C4695  C4714   1.347   .     S
H4696  C4697   1.073   .     S
C4697  C4730   1.388   .     S
C4698  O4707   1.406   .     S
C4698  C4240   1.408   1_556 S
C4699  C4726   1.364   .     S
C4699  H4729   1.028   .     S
C4701  O4711   1.407   .     S
C4702  C4744   1.579   .     S
C4702  C4725   1.503   .     S
C4702  C4764   1.546   .     S
H4703  C5299   1.078   .     S
C4704  C4726   1.386   .     S
C4705  C4706   1.390   .     S
C4706  O4735   1.440   .     S
C4709  C4762   1.391   .     S
C4710  C5340   1.477   .     S
O4711  C4728   1.371   .     S
C4714  O4736   1.464   .     S
C4716  N4734   1.145   .     S
C4716  C4718   1.383   .     S
C4717  O4719   1.371   .     S
C4717  C4718   1.388   .     S
C4721  C4737   1.380   .     S
C4724  C4754   1.379   .     S
C4725  C7469   1.384   .     S
C4726  O4735   1.428   .     S
H4727  C5396   1.047   .     S
C4728  C4730   1.405   .     S
O4738  C4749   1.444   .     S
C4739  H4743   1.085   .     S
C4744  C7356   1.534   .     S
C4745  H5277   1.129   .     S
C4745  H5401   1.067   .     S
N4746  C7552   1.169   .     S
C4748  C7498   1.360   .     S
C4749  C4750   1.409   .     S
C4753  C4760   1.344   .     S
C4754  C5393   1.515   .     S
C4756  H7339   1.120   .     S
C4756  H5291   1.116   .     S
C4756  H4761   1.115   .     S
H4759  C4764   1.195   .     S
C4760  H5257   1.084   .     S
C4760  C5268   1.413   .     S
C4762  C4165   1.384   1_556 S
C4762  O4231   1.395   1_556 S
C4764  H7365   1.092   .     S
C4764  H4765   1.089   .     S
C4766  C7417   1.404   .     S
H4768  C5395   1.126   .     S
C4770  C4833   1.365   .     S
C4770  C4843   1.447   .     S
C4770  C4779   1.406   .     S
C4771  C4848   1.433   .     S
C4771  O4837   1.354   .     S
C4771  C4817   1.418   .     S
C4772  C4819   1.404   .     S
C4772  C4854   1.528   .     S
C4772  C2802   1.422   1_565 S
H4773  C4822   1.151   .     S
O4774  C4832   1.359   .     S
O4774  C4963   1.352   .     S
C4775  C5057   1.437   .     S
C4776  C4820   1.407   .     S
C4776  H4828   1.121   .     S
C4776  C4853   1.359   .     S
H4777  C4809   1.092   .     S
N4778  C4831   1.156   .     S
C4779  O4795   1.402   .     S
C4779  C4784   1.481   .     S
C4780  C4815   1.385   .     S
C4780  C4812   1.391   .     S
C4780  O4798   1.399   .     S
C4781  C4862   1.376   .     S
C4781  C4829   1.473   .     S
C4781  O4796   1.322   .     S
H4782  C7595   1.094   .     S
O4783  C4897   1.434   .     S
O4783  C4790   1.384   .     S
C4784  O4796   1.356   .     S
C4784  C4825   1.361   .     S
N4785  C4801   1.125   .     S
O4786  C4848   1.414   .     S
O4786  C4833   1.407   .     S
H4787  C4824   1.097   .     S
H4788  C5346   1.141   1_554 S
H4789  C4824   1.174   .     S
C4790  C4807   1.371   .     S
C4790  C4832   1.461   .     S
N4791  C5380   1.209   1_554 S
C4792  C4819   1.372   .     S
C4792  C4794   1.417   .     S
H4793  C4824   1.126   .     S
C4794  C4803   1.408   .     S
O4795  C4829   1.339   .     S
C4797  C4816   1.384   .     S
C4797  O4811   1.449   .     S
O4798  C4816   1.364   .     S
C4799  C4851   1.408   .     S
C4799  C4830   1.417   .     S
C4799  C5331   1.397   1_554 S
H4800  C4841   1.110   .     S
C4801  C4807   1.424   .     S
H4802  C4958   1.152   .     S
C4803  C2802   1.378   1_565 S
C4803  O2828   1.403   1_565 S
H4804  C5064   1.097   .     S
H4805  C4822   1.133   .     S
H4806  C4809   1.087   .     S
C4807  C4812   1.390   .     S
C4808  C4825   1.376   .     S
C4808  C4833   1.378   .     S
C4808  O4837   1.393   .     S
C4809  H4834   1.095   .     S
C4809  C4856   1.541   .     S
H4810  C4841   1.084   .     S
O4811  C4812   1.403   .     S
C4813  C4827   1.573   .     S
C4813  H4857   1.117   .     S
C4813  H4818   1.052   .     S
C4814  C4847   1.405   .     S
C4814  C7690   1.400   .     S
C4814  C7907   1.536   .     S
C4815  C4832   1.369   .     S
C4817  C4826   1.386   .     S
C4817  H4845   1.106   .     S
C4819  C4827   1.571   .     S
C4820  C4854   1.497   .     S
C4820  C2814   1.384   1_565 S
C4821  N4849   1.125   .     S
C4821  C2819   1.403   1_565 S
C4822  H4836   1.053   .     S
C4822  C5001   1.529   .     S
C4823  H4840   1.121   .     S
C4823  C4855   1.388   .     S
C4823  C4838   1.375   .     S
C4824  C4827   1.504   .     S
C4825  C4831   1.392   .     S
C4826  C7673   1.541   .     S
C4827  C4841   1.539   .     S
C4829  C4890   1.405   .     S
C4830  N4852   1.159   .     S
C4835  C4850   1.390   .     S
C4835  O7697   1.420   .     S
C4835  C3333   1.380   1_564 S
C4838  O4839   1.399   .     S
C4838  C7646   1.455   .     S
O4839  C4850   1.421   .     S
C4841  C4854   1.533   .     S
H4842  C4846   1.147   .     S
O4844  C4853   1.392   .     S
O4844  C4851   1.380   .     S
C4846  H7659   1.041   .     S
C4846  H4860   1.050   .     S
C4846  C4856   1.528   .     S
C4847  H5065   1.123   .     S
C4850  C2819   1.378   1_565 S
C4851  C2737   1.388   1_565 S
C4853  C2812   1.416   1_565 S
C4854  C2823   1.534   1_565 S
C4855  C7676   1.408   .     S
C4855  C4856   1.523   .     S
C4856  C7594   1.569   .     S
H4858  C5314   1.130   1_554 S
O4859  C4927   1.391   .     S
O4859  C4880   1.408   .     S
C4862  H5074   1.080   .     S
C4862  C5002   1.397   .     S
H4863  C5346   1.126   1_554 S
C4864  H4996   1.124   .     S
C4864  H5014   1.124   .     S
C4864  H4869   1.114   .     S
C4864  C4867   1.553   .     S
C4865  N5024   1.157   .     S
C4865  C5025   1.404   .     S
C4866  H5222   1.077   .     S
C4866  C5030   1.390   .     S
C4866  C4972   1.397   .     S
C4867  C5067   1.511   .     S
C4867  C2995   1.526   1_565 S
C4867  C2883   1.503   1_565 S
H4868  C4870   1.116   .     S
C4870  C4997   1.539   .     S
C4870  H4950   1.089   .     S
C4870  H4928   1.143   .     S
C4871  C5021   1.597   .     S
C4871  C4935   1.520   .     S
C4871  H4985   1.098   .     S
C4871  H5029   1.115   .     S
C4872  C4962   1.388   .     S
C4872  C4976   1.363   .     S
C4872  C4938   1.569   .     S
C4873  C4910   1.520   .     S
C4873  C4933   1.550   .     S
C4873  C4895   1.540   .     S
C4873  C4977   1.492   .     S
H4874  C4979   1.137   .     S
C4875  C4926   1.363   .     S
C4875  H5073   1.131   .     S
C4875  C3041   1.366   1_565 S
C4876  H4989   1.117   .     S
C4876  H5048   1.115   .     S
C4876  C4987   1.555   .     S
C4876  C4905   1.585   .     S
H4877  C4930   1.120   .     S
C4878  C4880   1.414   .     S
C4878  O4921   1.426   .     S
H4879  C4977   1.100   .     S
C4881  H5076   1.062   .     S
C4881  C5040   1.502   .     S
C4881  C4884   1.497   .     S
C4881  H3063   1.093   1_565 S
H4882  C4930   1.094   .     S
H4883  C4947   1.106   .     S
C4884  C4885   1.485   .     S
C4884  C4891   1.477   .     S
C4884  C4912   1.486   .     S
C4885  H5006   1.087   .     S
C4885  H5051   1.112   .     S
C4885  H5053   1.094   .     S
C4886  C4963   1.402   .     S
C4886  C4910   1.396   .     S
C4886  H5028   1.108   .     S
C4887  C4956   1.388   .     S
C4887  C5059   1.375   .     S
C4888  H7740   1.103   .     S
C4888  H4908   1.098   .     S
C4888  H4909   1.077   .     S
C4888  C5044   1.562   .     S
C4889  H5055   1.092   .     S
C4889  C5005   1.521   .     S
C4889  H4914   1.114   .     S
C4889  C5044   1.533   .     S
C4890  H5008   1.081   .     S
C4890  C4991   1.408   .     S
C4891  H4913   1.127   .     S
C4891  H4918   1.106   .     S
C4891  H4932   1.088   .     S
C4892  C4943   1.377   .     S
C4892  C4965   1.406   .     S
C4892  O4970   1.406   .     S
C4893  C5001   1.511   .     S
C4893  C4958   1.380   .     S
C4893  C5039   1.434   .     S
H4894  C4969   1.086   .     S
C4895  H4981   1.090   .     S
C4895  C4959   1.552   .     S
C4895  H4988   1.158   .     S
H4896  C4902   1.168   .     S
C4897  C4999   1.370   .     S
C4897  C4963   1.460   .     S
C4898  H7910   1.155   .     S
C4898  H5060   1.146   .     S
C4898  H5066   1.115   .     S
C4898  C4905   1.569   .     S
H4899  C7883   1.101   .     S
H4900  C4979   1.147   .     S
C4901  C4984   1.449   .     S
C4901  C4968   1.570   .     S
C4901  C4998   1.382   .     S
C4902  H4951   1.111   .     S
C4902  H4957   1.101   .     S
C4902  C4938   1.568   .     S
H4903  C5013   1.144   .     S
H4904  C4917   1.125   .     S
C4905  C5013   1.519   .     S
C4905  C5049   1.529   .     S
H4906  C5016   1.132   .     S
H4907  C4917   1.083   .     S
C4910  C4920   1.408   .     S
C4911  C5041   1.484   .     S
C4911  C5038   1.383   .     S
C4911  C4919   1.372   .     S
C4912  C5017   1.406   .     S
C4912  C5030   1.414   .     S
C4915  H5007   1.091   .     S
C4915  C5041   1.555   .     S
C4915  C4964   1.541   .     S
C4916  C4942   1.396   .     S
C4916  N5045   1.140   .     S
C4917  C5041   1.561   .     S
C4917  C4968   1.526   .     S
C4919  C4964   1.530   .     S
C4919  C5059   1.366   .     S
C4920  C4999   1.394   .     S
C4920  C4959   1.475   .     S
O4921  C5037   1.391   .     S
H4922  C5018   1.097   .     S
H4923  C4933   1.115   .     S
H4924  C4947   1.076   .     S
C4925  H5050   1.130   .     S
C4925  H4946   1.067   .     S
C4925  H5020   1.083   .     S
C4925  C4964   1.517   .     S
C4926  C4990   1.381   .     S
C4926  C5021   1.572   .     S
C4927  C5037   1.439   .     S
C4927  C5057   1.430   .     S
C4929  C5015   1.506   .     S
C4929  H5070   1.066   .     S
C4929  H3053   1.181   1_565 S
C4929  H3054   1.108   1_565 S
C4930  C4968   1.534   .     S
C4930  H4980   1.041   .     S
C4933  H4948   1.107   .     S
C4933  H4978   1.087   .     S
C4934  C5001   1.512   .     S
C4934  C5021   1.596   .     S
C4934  H2886   1.128   1_565 S
C4934  H3057   1.125   1_565 S
C4935  C5018   1.534   .     S
C4935  C4990   1.559   .     S
C4935  C4994   1.468   .     S
H4936  C4994   1.158   .     S
H4937  C4967   1.132   .     S
C4938  C4947   1.543   .     S
C4938  C4979   1.549   .     S
H4939  C4967   1.090   .     S
H4940  C4979   1.128   .     S
C4941  C4949   1.367   .     S
C4941  C5063   1.461   .     S
C4942  C5009   1.371   .     S
C4942  C5247   1.406   .     S
C4943  C5011   1.380   .     S
C4943  H4983   1.076   .     S
H4944  C4966   1.141   .     S
H4945  C5031   1.059   .     S
C4947  C4987   1.502   .     S
C4949  C4962   1.387   .     S
C4949  H4953   1.072   .     S
C4952  C5057   1.431   .     S
C4952  O5054   1.408   .     S
C4952  C5003   1.377   .     S
H4954  C4994   1.049   .     S
H4955  C4994   1.079   .     S
C4956  C5038   1.393   .     S
C4956  O5023   1.433   .     S
C4958  C5019   1.383   .     S
C4959  C5032   1.590   .     S
C4959  C4991   1.572   .     S
H4960  C4977   1.126   .     S
C4961  O5023   1.409   .     S
C4962  C4987   1.560   .     S
C4965  C5042   1.412   .     S
C4965  O7901   1.403   .     S
C4966  H5068   1.130   .     S
C4966  C5015   1.587   .     S
C4966  H5010   1.125   .     S
C4967  H4993   1.077   .     S
C4967  C4968   1.512   .     S
C4969  H4975   1.074   .     S
C4969  H5061   1.091   .     S
C4969  C4997   1.530   .     S
O4970  C5072   1.422   .     S
O4971  C5036   1.376   .     S
O4971  C5003   1.363   .     S
C4972  C5022   1.385   .     S
C4972  O5211   1.378   .     S
H4973  C5032   1.096   .     S
C4974  H5000   1.101   .     S
C4974  C4990   1.363   .     S
C4974  C3058   1.421   1_565 S
C4976  C5063   1.409   .     S
C4976  H5034   1.072   .     S
C4977  H5027   1.162   .     S
C4982  C4984   1.379   .     S
C4982  C5062   1.426   .     S
C4984  C5041   1.504   .     S
H4986  C5038   1.118   .     S
C4987  C5011   1.523   .     S
C4991  C5002   1.345   .     S
H4992  C5067   1.069   .     S
H4995  C5032   1.093   .     S
C4997  C5032   1.578   .     S
C4997  C5002   1.521   .     S
C4998  C5254   1.365   .     S
C4998  H5043   1.092   .     S
C4999  H5069   1.083   .     S
C5001  C5064   1.548   .     S
C5003  C5025   1.382   .     S
H5004  C5018   1.116   .     S
C5005  C5067   1.464   .     S
C5005  C3052   1.555   1_565 S
C5005  C2973   1.559   1_565 S
C5009  O5012   1.432   .     S
C5009  C5081   1.405   .     S
C5011  C5049   1.381   .     S
O5012  C5022   1.377   .     S
C5013  H7749   1.146   .     S
C5013  H5046   1.124   .     S
C5015  C5016   1.568   .     S
C5015  C5052   1.503   .     S
C5016  H5033   1.070   .     S
C5016  C5040   1.544   .     S
C5017  H5026   1.076   .     S
C5017  C5022   1.413   .     S
C5018  H5047   1.121   .     S
C5019  O5054   1.374   .     S
C5019  C5036   1.445   .     S
C5021  C5039   1.463   .     S
C5025  C5037   1.376   .     S
C5030  C5040   1.536   .     S
C5031  C5039   1.408   .     S
C5031  C5036   1.373   .     S
N5035  C5141   1.178   .     S
C5040  C5056   1.571   .     S
C5042  H7728   1.077   .     S
C5042  C5049   1.359   .     S
C5044  C7725   1.502   .     S
C5044  C7897   1.558   .     S
C5052  C5056   1.417   .     S
C5052  C3120   1.386   1_565 S
C5056  C3206   1.393   1_565 S
H5058  C7874   1.115   .     S
C5062  C5254   1.407   .     S
C5064  H5071   1.119   .     S
C5064  H2882   1.110   1_565 S
C5067  H2944   1.055   1_565 S
C5072  C5223   1.373   .     S
C5072  C5075   1.419   .     S
C5075  O7901   1.364   .     S
C5075  C6955   1.402   .     S
C5077  H5195   1.150   .     S
C5077  C5132   1.362   .     S
C5077  C5139   1.390   .     S
C5078  C5236   1.360   .     S
C5078  C5174   1.408   .     S
C5078  O5198   1.366   .     S
C5079  C5159   1.428   .     S
C5079  N5250   1.152   .     S
C5080  C5117   1.436   .     S
C5080  N5151   1.190   .     S
C5081  C5099   1.418   .     S
C5081  O5211   1.348   .     S
H5082  C5142   1.122   .     S
H5083  C5108   1.120   .     S
H5084  C5108   1.175   .     S
H5085  C5206   1.126   .     S
C5086  C5108   1.539   .     S
C5086  C5101   1.481   .     S
C5086  C5239   1.514   .     S
C5086  C5105   1.556   .     S
H5087  C5131   1.108   .     S
C5088  C5169   1.393   .     S
C5088  O5214   1.348   .     S
C5088  C5199   1.436   .     S
O5089  C5247   1.370   .     S
O5089  C5252   1.405   .     S
H5090  C5251   1.117   .     S
N5091  C5221   1.166   .     S
C5092  C5205   1.526   .     S
C5092  C5142   1.485   .     S
C5092  C5173   1.523   .     S
C5092  C5134   1.514   .     S
O5093  C5174   1.442   .     S
O5093  C5098   1.363   .     S
C5094  H5119   1.027   .     S
C5094  C5208   1.407   .     S
C5094  C5172   1.349   .     S
N5095  C5200   1.146   .     S
C5096  H5232   1.144   .     S
C5096  C5243   1.393   .     S
C5096  C5230   1.396   .     S
H5097  C5201   1.133   .     S
C5098  C5149   1.400   .     S
C5099  C5200   1.412   .     S
C5099  C5144   1.392   .     S
C5100  H5160   1.087   .     S
C5100  C5154   1.381   .     S
C5100  C5229   1.367   .     S
C5101  C5182   1.407   .     S
C5101  C5175   1.406   .     S
C5102  C5193   1.535   .     S
C5102  C5226   1.496   .     S
C5102  C5228   1.499   .     S
C5102  C5231   1.557   .     S
N5103  C5128   1.156   .     S
H5104  C5131   1.071   .     S
C5105  H5406   1.139   .     S
C5105  C5188   1.577   .     S
C5105  H5408   1.091   .     S
H5106  C5134   1.054   .     S
C5107  C5183   1.579   .     S
C5107  C5201   1.511   .     S
C5107  C5207   1.506   .     S
C5108  H5164   1.109   .     S
C5109  C5253   1.528   .     S
C5109  C5190   1.404   .     S
C5110  C5117   1.432   .     S
C5110  O5176   1.400   .     S
C5110  C5136   1.415   .     S
C5111  C5125   1.426   .     S
C5111  N5153   1.154   .     S
C5112  C5114   1.400   .     S
C5112  C5116   1.396   .     S
C5112  C5136   1.367   .     S
H5113  C5197   1.090   .     S
C5114  N5245   1.164   .     S
C5115  C5187   1.474   .     S
C5115  C5143   1.368   .     S
C5115  C5226   1.436   .     S
C5116  O5161   1.423   .     S
C5116  C5158   1.417   .     S
C5117  C5158   1.428   .     S
H5118  C5175   1.066   .     S
C5120  C5180   1.408   .     S
C5120  O5161   1.371   .     S
C5120  C5177   1.398   .     S
C5121  O5218   1.401   .     S
C5121  C5127   1.411   .     S
C5121  C5210   1.377   .     S
O5122  C5133   1.408   .     S
O5122  C5127   1.382   .     S
H5123  C5177   1.160   .     S
C5124  H5163   1.115   .     S
C5124  C5147   1.417   .     S
C5124  C5226   1.362   .     S
C5125  C5240   1.419   .     S
C5125  C5127   1.414   .     S
C5126  O5249   1.383   .     S
C5126  C5159   1.419   .     S
C5128  C5171   1.451   .     S
H5129  C5228   1.100   .     S
C5130  H5155   1.110   .     S
C5130  C5187   1.519   .     S
C5130  H3174   1.092   1_565 S
C5130  C3212   1.582   1_565 S
C5131  C5415   1.479   .     S
C5131  H5138   1.092   .     S
C5132  C5229   1.408   .     S
C5132  C5187   1.570   .     S
C5133  C5147   1.421   .     S
C5133  C5143   1.399   .     S
C5134  H5170   1.049   .     S
C5134  H5181   1.084   .     S
H5135  C5148   1.102   .     S
C5136  O3211   1.420   1_565 S
C5137  C5414   1.442   .     S
C5137  C5365   1.422   .     S
C5137  O5166   1.433   .     S
C5139  C5154   1.441   .     S
C5139  O5166   1.395   .     S
H5140  C5162   1.082   .     S
C5141  C5210   1.421   .     S
C5142  C5217   1.545   .     S
C5142  H5212   1.084   .     S
C5143  H5145   1.165   .     S
C5144  C5247   1.406   .     S
C5144  O5235   1.382   .     S
H5146  C5251   1.140   .     S
C5147  O5218   1.410   .     S
C5148  H5241   1.088   .     S
C5148  C5253   1.566   .     S
C5149  O5198   1.417   .     S
H5150  C5239   1.115   .     S
H5152  C5207   1.078   .     S
C5154  O5220   1.371   .     S
H5156  C5251   1.079   .     S
H5157  C5169   1.107   .     S
C5158  O5165   1.408   .     S
C5162  C5190   1.381   .     S
O5165  C5180   1.395   .     S
N5168  C5244   1.172   .     S
C5169  C5173   1.416   .     S
C5171  C5174   1.407   .     S
C5171  C5184   1.380   .     S
C5172  C5230   1.428   .     S
C5173  C5216   1.397   .     S
C5175  C5180   1.393   .     S
O5176  C3204   1.385   1_565 S
C5177  C5182   1.378   .     S
H5178  C5206   1.082   .     S
H5179  C5193   1.038   .     S
C5182  C5188   1.536   .     S
C5183  H5256   1.062   .     S
C5183  H5225   1.105   .     S
C5184  O5214   1.384   .     S
C5184  C5192   1.380   .     S
H5185  C5193   1.116   .     S
N5186  C5209   1.168   .     S
C5187  C5231   1.514   .     S
C5188  C5404   1.508   .     S
C5188  C5243   1.521   .     S
H5189  C5207   1.119   .     S
C5190  C5217   1.504   .     S
C5191  C5210   1.400   .     S
C5191  O5248   1.391   .     S
C5191  C5240   1.401   .     S
C5192  O5213   1.443   .     S
C5192  C5236   1.374   .     S
C5193  H5202   1.090   .     S
H5194  C5205   1.075   .     S
H5196  C5239   1.114   .     S
C5197  C5216   1.376   .     S
C5197  C5199   1.415   .     S
C5199  O5213   1.359   .     S
C5201  H5246   1.069   .     S
H5203  C5239   1.176   .     S
H5204  C5205   1.054   .     S
C5205  H5215   1.117   .     S
C5206  C5217   1.585   .     S
C5206  C5253   1.559   .     S
C5207  H5234   1.130   .     S
C5208  C5243   1.375   .     S
C5208  C5415   1.551   .     S
C5209  C5414   1.402   .     S
C5216  C5217   1.496   .     S
H5219  C8010   1.121   .     S
O5220  C5365   1.387   .     S
C5221  C5236   1.413   .     S
C5223  C5244   1.456   .     S
C5224  O5235   1.385   .     S
C5224  C5252   1.407   .     S
H5227  C5231   1.129   .     S
C5228  H3095   1.089   1_565 S
C5228  H3229   1.135   1_565 S
C5229  C3212   1.492   1_565 S
C5231  H5233   1.145   .     S
H5237  C7963   1.132   .     S
C5240  O8003   1.431   .     S
H5242  C8010   1.126   .     S
O5248  C8071   1.343   .     S
O5249  C5254   1.394   .     S
C5251  C8017   1.525   .     S
C5258  C5260   1.404   .     S
C5258  H5259   1.082   .     S
C5258  C5264   1.465   .     S
C5260  C5317   1.395   .     S
C5260  C5345   1.571   .     S
O5261  C5264   1.408   .     S
O5261  C5292   1.373   .     S
H5262  C5342   1.153   .     S
H5263  C5306   1.122   .     S
C5264  C5266   1.393   .     S
C5265  C5266   1.329   .     S
C5265  H5349   1.129   .     S
C5265  C5317   1.366   .     S
C5266  O5352   1.388   .     S
H5267  C5297   1.124   .     S
C5268  O5336   1.384   .     S
C5269  C5294   1.386   .     S
C5269  O5323   1.421   .     S
C5269  C5281   1.404   .     S
C5270  C5390   1.412   .     S
C5270  C5403   1.408   .     S
C5271  H5311   1.094   .     S
C5271  H5373   1.115   .     S
C5271  C5326   1.535   .     S
C5271  H5372   1.084   .     S
C5272  H5412   1.134   .     S
C5272  H5392   1.107   .     S
C5272  C5393   1.491   .     S
C5273  C5366   1.421   .     S
C5273  O5384   1.380   .     S
C5273  C5313   1.385   .     S
H5274  C5314   1.072   .     S
C5275  N5333   1.150   .     S
C5275  C5368   1.362   .     S
C5276  C5317   1.547   .     S
C5276  C5342   1.543   .     S
C5276  C5367   1.558   .     S
C5276  C5312   1.543   .     S
C5278  O5296   1.426   .     S
C5278  C5327   1.406   .     S
C5278  C3261   1.419   1_565 S
C5279  C5322   1.539   .     S
C5279  C5330   1.547   .     S
C5279  C5346   1.552   .     S
H5280  C5378   1.133   .     S
C5281  C5381   1.452   .     S
C5281  C5390   1.385   .     S
H5282  C5309   1.081   .     S
H5283  C5312   1.087   .     S
H5284  C5312   1.084   .     S
H5285  C5309   1.137   .     S
C5286  H5351   1.080   .     S
C5286  H5288   1.094   .     S
C5286  C5345   1.567   .     S
C5286  H5382   1.074   .     S
C5287  N5361   1.147   .     S
C5287  C5377   1.465   .     S
C5289  N5328   1.149   .     S
C5289  C5363   1.376   .     S
H5290  C5314   1.163   .     S
C5292  C5410   1.422   .     S
C5292  C5379   1.359   .     S
C5293  C5342   1.544   .     S
C5293  C5369   1.562   .     S
C5293  C5318   1.511   .     S
C5293  C5378   1.529   .     S
C5294  C5403   1.391   .     S
C5294  O5398   1.398   .     S
H5295  C5306   1.124   .     S
O5296  C5331   1.418   .     S
C5297  H5321   1.094   .     S
C5297  H5388   1.132   .     S
C5297  C5326   1.554   .     S
H5298  C5334   1.147   .     S
C5299  H7553   1.112   .     S
C5299  C5393   1.536   .     S
C5299  H8268   1.152   .     S
H5300  C5318   1.056   .     S
H5301  C5404   1.094   .     S
C5302  H5402   1.054   .     S
C5302  H5399   1.086   .     S
C5302  H5316   1.097   .     S
C5302  C5415   1.535   .     S
H5303  C5334   1.172   .     S
C5304  C5363   1.400   .     S
C5304  C5411   1.388   .     S
C5304  O8192   1.389   .     S
C5305  C5307   1.430   .     S
C5305  C5391   1.393   .     S
C5306  C5339   1.520   .     S
C5306  H5407   1.175   .     S
C5307  C5369   1.410   .     S
C5307  H5383   1.072   .     S
C5308  H5337   1.103   .     S
C5308  H5341   1.144   .     S
C5308  C5326   1.509   .     S
C5308  C5319   1.485   .     S
C5309  H5375   1.129   .     S
C5309  C5345   1.539   .     S
C5310  H5320   1.113   .     S
C5310  C5391   1.372   .     S
C5310  C5367   1.371   .     S
C5312  C5345   1.523   .     S
C5313  C5371   1.367   .     S
C5313  O5359   1.389   .     S
C5314  C5339   1.531   .     S
C5314  H4858   1.130   1_556 S
C5315  C5371   1.374   .     S
C5315  C5319   1.558   .     S
C5315  C5376   1.366   .     S
C5318  H5389   1.127   .     S
C5318  H5397   1.143   .     S
C5319  C5362   1.591   .     S
C5319  C5334   1.520   .     S
C5322  C5355   1.358   .     S
C5322  C5396   1.383   .     S
O5323  C5350   1.419   .     S
O5324  C5400   1.405   .     S
O5324  C5357   1.428   .     S
H5325  C5371   1.114   .     S
C5326  C5376   1.507   .     S
C5327  H5356   1.117   .     S
C5327  C5362   1.403   .     S
H5329  C5342   1.118   .     S
C5330  H5332   1.132   .     S
C5330  C5393   1.530   .     S
C5330  H5338   1.103   .     S
C5331  C3314   1.401   1_565 S
C5331  C4799   1.397   1_556 S
C5334  C3293   1.491   1_565 S
C5335  C8154   1.393   .     S
C5335  O5374   1.380   .     S
C5335  C5400   1.408   .     S
O5336  C5390   1.453   .     S
C5339  C5355   1.643   .     S
C5339  C5346   1.571   .     S
C5340  H5413   1.141   .     S
C5340  H5409   1.119   .     S
C5340  H5358   1.100   .     S
C5343  C5368   1.397   .     S
C5343  O5384   1.419   .     S
C5343  C5353   1.374   .     S
C5344  C5355   1.401   .     S
C5344  H5347   1.053   .     S
C5344  C5350   1.435   .     S
C5346  H4863   1.126   1_556 S
C5346  H4788   1.141   1_556 S
C5348  O5398   1.391   .     S
C5348  C5350   1.427   .     S
C5348  C5396   1.357   .     S
O5352  C5410   1.349   .     S
C5353  C5363   1.419   .     S
C5353  O5359   1.432   .     S
H5354  C5395   1.082   .     S
C5357  C5386   1.450   .     S
C5357  C5377   1.383   .     S
H5360  C5366   1.145   .     S
C5362  C3260   1.400   1_565 S
H5364  C5404   1.088   .     S
C5365  C5377   1.412   .     S
C5366  C5376   1.338   .     S
C5367  C5369   1.371   .     S
C5368  C5411   1.378   .     S
H5370  C5395   1.098   .     S
O5374  C5386   1.383   .     S
C5378  H5394   1.072   .     S
C5378  H5387   1.056   .     S
C5379  C5380   1.398   .     S
C5380  N4791   1.209   1_556 S
C5381  N5385   1.178   .     S
C5386  C5414   1.434   .     S
C5391  O5416   1.401   .     S
C5400  C8128   1.425   .     S
C5404  C5415   1.483   .     S
C5411  O8177   1.416   .     S
C5417  C5455   1.419   .     S
C5417  C5422   1.371   .     S
C5417  C5540   1.506   .     S
C5418  H5560   1.086   .     S
C5418  H5506   1.132   .     S
C5418  H5523   1.150   .     S
C5418  C5551   1.487   .     S
H5419  C5648   1.141   .     S
C5420  O5526   1.379   .     S
C5420  C5457   1.468   .     S
C5420  C44     1.388   1_655 S
N5421  C5423   1.143   .     S
C5422  C5533   1.543   .     S
C5422  C5428   1.361   .     S
C5423  C5538   1.433   .     S
C5424  C5477   1.529   .     S
C5424  C5482   1.528   .     S
C5424  C5461   1.489   .     S
C5424  C5497   1.553   .     S
C5425  C5474   1.328   .     S
C5425  C5535   1.425   .     S
H5426  C7674   1.112   1_545 S
H5427  C5545   1.100   .     S
C5428  C5495   1.373   .     S
C5428  H5547   1.104   .     S
H5429  C5477   1.101   .     S
H5430  C5468   1.082   .     S
C5431  C5443   1.515   .     S
C5431  C5550   1.530   .     S
C5431  C5521   1.524   .     S
C5431  C5451   1.499   .     S
H5432  C5521   1.062   .     S
C5433  O5526   1.408   .     S
C5433  C5538   1.388   .     S
C5433  C5490   1.412   .     S
H5434  C5445   1.113   .     S
O5435  C5448   1.362   .     S
O5435  C5520   1.388   .     S
H5436  C5550   1.041   .     S
C5437  C5522   1.554   .     S
C5437  C5460   1.354   .     S
C5437  C7708   1.406   1_545 S
C5438  C5498   1.393   .     S
C5438  C5520   1.434   .     S
C5438  O5554   1.387   .     S
H5439  C5479   1.088   .     S
H5440  C5441   1.112   .     S
C5441  H5512   1.125   .     S
C5441  H5467   1.075   .     S
C5441  C5522   1.588   .     S
H5442  C5518   1.138   .     S
C5443  C5539   1.412   .     S
C5443  C5484   1.345   .     S
C5444  O5481   1.465   .     S
C5444  C5464   1.420   .     S
C5444  C5988   1.398   1_554 S
C5445  H5529   1.070   .     S
C5445  H5558   1.062   .     S
C5445  C5551   1.578   .     S
N5446  C5845   1.133   1_554 S
C5448  C5552   1.396   .     S
C5448  C5510   1.413   .     S
H5449  C5498   1.115   .     S
O5450  C5491   1.419   .     S
O5450  C5514   1.396   .     S
C5451  H5473   1.096   .     S
C5451  H5483   1.063   .     S
C5451  H5500   1.079   .     S
H5452  C5468   1.087   .     S
H5453  C5499   1.136   .     S
C5454  C5464   1.436   .     S
C5454  N5519   1.132   .     S
C5455  C5514   1.375   .     S
C5455  H5513   1.164   .     S
H5456  C5548   1.104   .     S
C5457  O5553   1.413   .     S
C5457  C7909   1.395   1_545 S
C5458  O5517   1.402   .     S
C5458  C5491   1.404   .     S
C5458  C5967   1.393   1_554 S
C5459  C5551   1.504   .     S
C5459  C5555   1.399   .     S
C5459  C5462   1.434   .     S
C5460  H5485   1.142   .     S
C5460  C7557   1.411   1_545 S
C5461  H5508   1.145   .     S
C5461  C5505   1.524   .     S
C5461  H5543   1.065   .     S
C5462  C5487   1.414   .     S
C5462  H5472   1.129   .     S
H5463  C5492   1.173   .     S
C5464  C5491   1.377   .     S
H5465  C5515   1.103   .     S
H5466  C5499   1.138   .     S
C5468  C5540   1.544   .     S
C5468  C5533   1.538   .     S
C5469  H5561   1.097   .     S
C5469  C5505   1.595   .     S
C5470  C5566   1.375   .     S
C5470  C5490   1.367   .     S
C5470  C5537   1.403   .     S
H5471  C5477   1.088   .     S
C5474  H3334   1.101   1_554 S
C5474  C5974   1.414   1_554 S
O5475  C5530   1.389   .     S
O5475  C5537   1.403   .     S
C5476  C5487   1.406   .     S
C5476  O5563   1.360   .     S
C5476  C5496   1.426   .     S
C5477  H5525   1.132   .     S
C5478  H5494   1.078   .     S
C5478  H5516   1.143   .     S
C5478  H5504   1.139   .     S
C5478  C5522   1.512   .     S
C5479  C5559   1.564   .     S
C5479  C5522   1.525   .     S
C5479  H5544   1.069   .     S
C5480  C5548   1.403   .     S
C5480  O5570   1.368   .     S
C5480  C5974   1.422   1_554 S
O5481  C5948   1.406   1_554 S
C5482  H5493   1.107   .     S
C5482  H5562   1.113   .     S
C5482  H5557   1.143   .     S
C5484  H5532   1.140   .     S
C5484  C5530   1.416   .     S
C5486  C5538   1.340   .     S
C5486  O5502   1.354   .     S
C5486  C5537   1.424   .     S
C5487  O5488   1.352   .     S
O5488  H5541   0.972   .     S
H5489  C5515   1.072   .     S
C5490  O5553   1.406   .     S
C5492  C5497   1.407   .     S
C5492  C5520   1.359   .     S
C5495  O5517   1.391   .     S
C5495  C5514   1.433   .     S
C5496  C5555   1.369   .     S
C5496  H5959   1.152   1_554 S
C5497  C5527   1.387   .     S
C5498  C5527   1.369   .     S
C5499  C5533   1.573   .     S
C5499  H5528   1.055   .     S
H5501  C5518   1.118   .     S
O5502  C5511   1.358   .     S
H5503  C5521   1.057   .     S
C5505  C5535   1.513   .     S
C5505  C5527   1.532   .     S
H5507  C5524   1.059   .     S
H5509  C5545   1.155   .     S
C5510  C5531   1.471   .     S
C5511  C5524   1.387   .     S
C5511  C5530   1.403   .     S
C5515  H5534   1.098   .     S
C5515  C5533   1.578   .     S
C5518  H5564   1.099   .     S
C5518  C5647   1.531   .     S
C5521  H5556   1.101   .     S
C5524  C5539   1.364   .     S
C5531  N5659   1.155   .     S
C5535  C5548   1.413   .     S
H5536  C5545   1.084   .     S
C5539  C5540   1.542   .     S
C5540  C5550   1.507   .     S
H5542  C5550   1.100   .     S
C5545  C6034   1.467   .     S
O5546  C5579   1.402   .     S
H5549  C5648   1.119   .     S
C5551  C5571   1.509   .     S
C5552  O5554   1.458   .     S
C5555  C5987   1.482   1_554 S
C5559  C7641   1.445   1_545 S
C5559  C7674   1.535   1_545 S
C5559  C7708   1.496   1_545 S
O5563  H5565   0.964   .     S
C5566  N5643   1.134   .     S
H5567  C5571   1.190   .     S
N5568  C5632   1.125   .     S
H5569  C6110   1.117   .     S
O5570  C5894   1.410   1_554 S
C5571  C5987   1.523   1_554 S
C5571  H6001   1.131   1_554 S
N5572  C5667   1.119   .     S
N5573  C5580   1.160   .     S
C5574  C5631   1.381   .     S
C5574  O5613   1.395   .     S
C5574  C5641   1.454   .     S
C5575  C5584   1.465   .     S
C5575  C5598   1.404   .     S
C5575  C5600   1.376   .     S
O5576  C5639   1.426   .     S
O5576  C5627   1.360   .     S
H5577  C5583   1.046   .     S
C5578  C5619   1.572   .     S
C5578  C5612   1.343   .     S
C5578  C5610   1.405   .     S
C5579  C5581   1.425   .     S
C5579  C5666   1.389   .     S
C5580  C5640   1.435   .     S
C5581  H6313   1.120   .     S
C5581  C6266   1.376   .     S
H5582  C5612   1.123   .     S
C5583  H5615   1.087   .     S
C5583  C5588   1.559   .     S
C5583  H5601   1.153   .     S
C5584  O5628   1.393   .     S
C5584  C5622   1.400   .     S
H5585  C5590   1.070   .     S
C5586  H5650   1.130   .     S
C5586  C5588   1.530   .     S
C5586  H5591   1.103   .     S
C5586  H5602   1.122   .     S
C5587  C5623   1.355   .     S
C5587  O5609   1.451   .     S
C5587  C7780   1.468   1_545 S
C5588  C5636   1.514   .     S
C5588  C5595   1.510   .     S
C5589  C5623   1.413   .     S
C5589  N5633   1.175   .     S
C5590  C5610   1.330   .     S
C5590  C5642   1.408   .     S
O5592  C5642   1.369   .     S
O5592  C5603   1.409   .     S
H5593  C5636   1.144   .     S
C5594  H6354   1.093   .     S
C5594  C5608   1.526   .     S
C5594  H5635   1.089   .     S
C5594  C6286   1.551   .     S
C5595  C5599   1.405   .     S
C5595  C5618   1.369   .     S
C5596  C5661   1.395   .     S
C5596  C5666   1.342   .     S
C5597  C5603   1.424   .     S
C5597  C5622   1.396   .     S
C5597  C5632   1.435   .     S
C5598  N5614   1.196   .     S
C5599  C5634   1.369   .     S
C5599  C5619   1.527   .     S
C5600  C5603   1.421   .     S
C5600  O5644   1.352   .     S
C5604  C5637   1.405   .     S
C5604  C5639   1.404   .     S
C5604  O5617   1.379   .     S
H5605  C5626   1.110   .     S
H5606  C5618   1.119   .     S
C5607  C5637   1.387   .     S
C5607  N5658   1.177   .     S
C5608  C6341   1.594   .     S
C5608  C5656   1.533   .     S
O5609  C5665   1.388   .     S
C5610  C5647   1.481   .     S
H5611  C5634   1.109   .     S
C5612  C5616   1.407   .     S
O5613  C5622   1.390   .     S
C5616  C5642   1.416   .     S
C5616  O5644   1.387   .     S
O5617  C5629   1.386   .     S
C5618  C5627   1.365   .     S
C5619  C5636   1.527   .     S
C5619  C5626   1.519   .     S
C5620  C5778   1.422   .     S
C5620  O5657   1.398   .     S
C5620  C251    1.442   1_655 S
H5621  C5648   1.106   .     S
C5623  C5654   1.374   .     S
H5624  C5656   1.108   .     S
H5625  C5656   1.105   .     S
C5626  H5653   1.122   .     S
C5626  C5647   1.548   .     S
C5627  C5629   1.400   .     S
O5628  C5641   1.323   .     S
C5629  C5634   1.416   .     S
C5630  C5645   1.409   .     S
C5630  C5640   1.377   .     S
C5630  O5651   1.373   .     S
C5631  H5660   1.068   .     S
C5636  H5638   1.050   .     S
C5637  C5645   1.405   .     S
C5639  C5640   1.367   .     S
C5641  C7912   1.403   1_545 S
C5645  O5657   1.422   .     S
C5646  N5655   1.169   .     S
C5646  C120    1.365   1_655 S
C5647  C5648   1.554   .     S
H5649  C5652   1.085   .     S
O5651  C5778   1.454   .     S
C5652  C5665   1.424   .     S
C5652  C7798   1.381   1_545 S
C5654  O5803   1.445   .     S
C5654  C7745   1.441   1_545 S
C5656  H5663   1.085   .     S
C5661  C6266   1.387   .     S
C5661  C6286   1.546   .     S
H5662  C7877   1.069   1_545 S
H5664  C7730   1.095   1_545 S
C5665  C7815   1.403   1_545 S
C5667  C7803   1.414   1_545 S
C5668  C5790   1.422   .     S
C5668  C5753   1.392   .     S
C5668  O5813   1.374   .     S
H5669  C5708   1.070   .     S
C5670  C5794   1.378   .     S
C5670  O5706   1.391   .     S
C5670  C5679   1.401   .     S
C5671  C5797   1.393   .     S
C5671  O5702   1.359   .     S
C5671  C5703   1.387   .     S
C5672  C5739   1.396   .     S
C5672  C5801   1.356   .     S
C5672  C5810   1.367   .     S
C5673  N5826   1.151   .     S
C5673  C5696   1.414   .     S
H5674  C5790   1.073   .     S
O5675  C5759   1.336   .     S
O5675  C5823   1.392   .     S
C5676  O5751   1.420   .     S
C5676  C5734   1.415   .     S
C5676  C5758   1.426   .     S
H5677  C5741   1.111   .     S
H5678  C5723   1.075   .     S
C5679  O6554   1.410   .     S
C5679  C5820   1.383   .     S
H5680  C5684   1.107   .     S
N5681  C5686   1.179   .     S
C5682  C5742   1.358   .     S
C5682  O5803   1.383   .     S
C5682  C7988   1.397   1_545 S
H5683  C5684   1.052   .     S
C5684  H5689   1.069   .     S
C5684  C5788   1.517   .     S
O5685  C5724   1.424   .     S
O5685  C5784   1.418   .     S
C5686  C5794   1.376   .     S
C5687  C5742   1.420   .     S
C5687  C5788   1.523   .     S
C5687  C8057   1.385   1_545 S
H5688  C5789   1.104   .     S
C5690  C5774   1.362   .     S
C5690  C5736   1.531   .     S
C5690  C5790   1.365   .     S
C5691  C5748   1.385   .     S
C5691  C6535   1.405   .     S
C5691  C5763   1.498   .     S
C5692  C5703   1.419   .     S
C5692  C5870   1.520   .     S
C5692  C5761   1.364   .     S
H5693  C5715   1.079   .     S
C5694  N5750   1.149   .     S
C5694  C5718   1.424   .     S
C5695  C5823   1.434   .     S
C5695  C7926   1.382   1_545 S
C5695  O8072   1.359   1_545 S
C5696  C5770   1.348   .     S
C5696  C5745   1.371   .     S
H5697  C5732   1.105   .     S
C5698  C5788   1.494   .     S
C5698  H5704   1.118   .     S
C5698  H5806   1.150   .     S
C5698  C7975   1.532   1_545 S
C5699  C5802   1.413   .     S
C5699  C5820   1.409   .     S
C5699  O5818   1.400   .     S
C5700  C5831   1.544   .     S
C5700  C5777   1.380   .     S
C5700  C254    1.355   1_655 S
H5701  C5708   1.091   .     S
O5702  C6545   1.406   .     S
C5703  H5941   1.075   .     S
H5705  C8074   1.102   1_545 S
O5706  C6487   1.414   .     S
C5707  C5761   1.536   .     S
C5707  C5791   1.532   .     S
C5707  C5774   1.551   .     S
C5707  C5727   1.540   .     S
C5708  C5824   1.501   .     S
C5708  H5726   1.196   .     S
C5709  C5782   1.580   .     S
C5709  C5747   1.525   .     S
C5709  C5732   1.555   .     S
C5709  C5723   1.525   .     S
C5710  H5757   1.166   .     S
C5710  C5729   1.523   .     S
C5710  H5805   1.119   .     S
C5710  C5719   1.565   .     S
H5711  C5715   1.111   .     S
H5712  C5723   1.101   .     S
H5713  C5791   1.137   .     S
H5714  C5819   1.047   .     S
C5715  H5746   1.052   .     S
C5715  C5729   1.523   .     S
H5716  C6531   1.097   .     S
N5717  C5730   1.139   .     S
C5718  C5724   1.381   .     S
C5718  C5738   1.414   .     S
C5719  C5767   1.547   .     S
C5719  C5721   1.512   .     S
C5719  C5782   1.549   .     S
C5720  C5986   1.362   .     S
C5720  C5809   1.371   .     S
C5720  C5824   1.548   .     S
C5721  C5734   1.328   .     S
C5721  C5747   1.428   .     S
H5722  C5789   1.111   .     S
C5723  H5754   1.126   .     S
C5724  C5770   1.426   .     S
C5725  C5799   1.391   .     S
C5725  C5729   1.534   .     S
C5725  C5767   1.404   .     S
C5727  H5755   1.079   .     S
C5727  C5870   1.538   .     S
C5727  H5822   1.097   .     S
H5728  C5799   1.115   .     S
C5729  C5795   1.523   .     S
C5730  C5780   1.434   .     S
C5731  H5811   1.095   .     S
C5731  C5797   1.377   .     S
C5731  C5761   1.428   .     S
C5732  H5773   1.104   .     S
C5732  H5775   1.063   .     S
C5733  C5758   1.407   .     S
C5733  C5747   1.399   .     S
C5733  H5781   1.100   .     S
C5734  H5744   1.121   .     S
H5735  C5804   1.067   .     S
C5736  C5789   1.539   .     S
C5736  C5741   1.578   .     S
C5736  C5791   1.551   .     S
H5737  C5742   1.138   .     S
C5738  C5745   1.400   .     S
C5738  O5751   1.406   .     S
C5739  N5749   1.151   .     S
C5740  C5819   1.348   .     S
C5740  C5759   1.416   .     S
C5740  O8072   1.424   1_545 S
C5741  H5768   1.107   .     S
C5741  H5766   1.115   .     S
H5743  C5795   1.080   .     S
C5745  O5772   1.392   .     S
C5748  C6547   1.363   .     S
C5748  C5831   1.509   .     S
H5752  C5809   1.110   .     S
C5753  O5818   1.357   .     S
C5753  C5800   1.350   .     S
O5756  C5792   1.425   .     S
O5756  C5770   1.399   .     S
C5758  O5772   1.387   .     S
C5759  C5799   1.393   .     S
H5760  C5782   1.096   .     S
H5762  C8074   1.126   1_545 S
C5763  C5815   1.544   .     S
C5763  C5830   1.496   .     S
C5763  C5832   1.589   .     S
H5764  C5795   1.089   .     S
H5765  C5808   1.123   .     S
C5767  C5819   1.372   .     S
H5769  C5808   1.107   .     S
H5771  C5815   1.065   .     S
C5774  C5800   1.402   .     S
H5776  C5791   1.108   .     S
C5777  C5778   1.381   .     S
C5777  H5812   1.081   .     S
H5779  C5815   1.178   .     S
C5780  C5823   1.393   .     S
C5780  C5828   1.413   .     S
C5782  H5814   1.072   .     S
H5783  C5815   1.121   .     S
C5784  C5825   1.388   .     S
C5784  C5792   1.397   .     S
O5785  C5801   1.386   .     S
O5785  C375    1.417   1_655 S
H5786  C5804   1.109   .     S
H5787  C7931   1.094   1_545 S
C5788  C5808   1.520   .     S
C5789  H5793   1.118   .     S
C5792  C6008   1.323   .     S
C5794  C5802   1.389   .     S
C5795  H5807   1.110   .     S
O5796  C6427   1.361   .     S
O5796  C5797   1.408   .     S
H5798  C5832   1.123   .     S
C5800  H5816   1.111   .     S
C5801  C439    1.452   1_655 S
C5802  O5813   1.389   .     S
C5804  C5824   1.560   .     S
C5804  H8026   1.115   1_545 S
C5808  H5829   1.079   .     S
C5809  C5874   1.387   .     S
C5810  C5905   1.420   .     S
C5810  O5821   1.354   .     S
H5817  C5830   1.072   .     S
O5821  C5897   1.348   .     S
C5824  C7941   1.514   1_545 S
C5825  H6384   1.161   .     S
C5825  C6000   1.376   .     S
O5827  C5828   1.419   .     S
O5827  C8066   1.386   1_545 S
C5828  C8013   1.419   1_545 S
C5830  H892    1.104   1_655 S
C5830  H151    1.088   1_655 S
C5831  C5832   1.532   .     S
C5831  C258    1.569   1_655 S
C5832  H221    1.117   1_655 S
H5833  C6535   1.107   .     S
N5834  C5916   1.145   .     S
H5835  C5877   1.130   .     S
H5836  C6008   1.135   .     S
N5837  C5955   1.147   .     S
N5838  C5924   1.189   .     S
C5839  N5939   1.158   .     S
C5839  C5852   1.492   .     S
H5840  C5876   1.115   .     S
C5841  C5859   1.387   .     S
C5841  C5922   1.379   .     S
C5841  O5899   1.405   .     S
O5842  C5994   1.359   .     S
O5842  C5928   1.436   .     S
C5843  C5869   1.374   .     S
C5843  C5953   1.402   .     S
C5843  O5878   1.383   .     S
C5844  C5900   1.356   .     S
C5844  O5881   1.382   .     S
C5844  C5850   1.402   .     S
C5845  C5942   1.406   .     S
C5845  N5446   1.133   1_556 S
C5846  O5899   1.374   .     S
H5847  C6006   1.072   .     S
H5848  C5876   1.143   .     S
H5849  C6006   1.136   .     S
C5850  C5916   1.435   .     S
C5850  C5893   1.430   .     S
H5851  C5940   1.102   .     S
C5852  C5910   1.411   .     S
C5852  C5900   1.409   .     S
O5853  C5905   1.358   .     S
O5853  C5873   1.409   .     S
C5854  H5952   1.107   .     S
C5854  H5978   1.101   .     S
C5854  H5936   1.161   .     S
C5854  C8270   1.527   1_545 S
H5855  C5901   1.119   .     S
C5856  H5886   1.119   .     S
C5856  C5917   1.389   .     S
C5856  C5885   1.401   .     S
H5857  C6006   1.075   .     S
H5858  C5983   1.092   .     S
C5859  C5942   1.357   .     S
C5859  O5946   1.411   .     S
H5860  C5876   1.100   .     S
C5861  C6000   1.403   .     S
C5861  C6008   1.422   .     S
C5861  C5887   1.520   .     S
O5862  C5971   1.386   .     S
O5862  C5988   1.394   .     S
C5863  H5892   1.107   .     S
C5863  C5948   1.340   .     S
C5863  C5963   1.403   .     S
C5864  C5950   1.490   .     S
C5864  H5984   1.113   .     S
C5864  C5987   1.548   .     S
C5864  H5912   1.127   .     S
H5865  C5973   1.129   .     S
C5866  C5949   1.480   .     S
C5866  C6002   1.489   .     S
C5866  C5940   1.495   .     S
C5866  C5921   1.516   .     S
C5867  O5881   1.357   .     S
C5867  C5976   1.358   .     S
C5867  C5885   1.402   .     S
C5868  C5958   1.372   .     S
C5868  C5920   1.418   .     S
C5868  O5957   1.388   .     S
C5869  O5957   1.389   .     S
C5869  C5968   1.362   .     S
C5870  C6006   1.553   .     S
C5870  C5883   1.561   .     S
C5871  C5884   1.549   .     S
C5871  C5925   1.532   .     S
C5871  C6586   1.518   .     S
C5871  C5917   1.535   .     S
H5872  C5898   1.174   .     S
C5873  C6702   1.397   .     S
C5873  C5897   1.408   .     S
C5874  O6005   1.379   .     S
C5874  C5880   1.418   .     S
H5875  C5883   1.020   .     S
C5876  C5931   1.565   .     S
C5877  H5944   1.144   .     S
C5877  H5956   1.084   .     S
C5877  C5950   1.521   .     S
O5878  C5920   1.410   .     S
C5879  H6004   1.096   .     S
C5879  C5880   1.428   .     S
C5879  C5986   1.400   .     S
C5880  O5938   1.407   .     S
H5882  C5973   1.130   .     S
C5883  H5891   1.155   .     S
C5883  H5934   1.136   .     S
C5884  C5898   1.374   .     S
C5884  C5963   1.360   .     S
C5885  O5890   1.426   .     S
C5887  C5985   1.572   .     S
C5887  C5961   1.570   .     S
C5887  C6686   1.540   .     S
C5888  C5958   1.400   .     S
C5888  N5977   1.175   .     S
H5889  C5961   1.105   .     S
O5890  C5900   1.450   .     S
C5893  O6005   1.403   .     S
C5893  C5910   1.401   .     S
C5894  C5964   1.390   .     S
C5894  C5918   1.377   .     S
C5894  O5570   1.410   1_556 S
O5895  C5908   1.323   .     S
O5895  C416    1.376   1_655 S
C5896  C5921   1.423   .     S
C5896  C5931   1.541   .     S
C5896  C5953   1.414   .     S
C5897  C5901   1.380   .     S
C5898  C5971   1.414   .     S
C5901  C6704   1.392   .     S
H5902  C5949   1.103   .     S
H5903  C5930   1.069   .     S
H5904  C290    1.136   1_655 S
C5905  C437    1.419   1_655 S
H5906  C5947   1.090   .     S
N5907  C5913   1.152   .     S
C5908  C5992   1.417   .     S
C5908  C5930   1.408   .     S
H5909  C5966   1.097   .     S
C5910  O5938   1.353   .     S
H5911  C5925   1.105   .     S
C5913  C5967   1.429   .     S
C5914  C5981   1.392   .     S
C5914  C5960   1.365   .     S
C5914  C5987   1.502   .     S
H5915  C5968   1.136   .     S
C5917  C5975   1.314   .     S
C5918  C5924   1.359   .     S
C5918  C5920   1.424   .     S
H5919  C5949   1.138   .     S
C5921  C5968   1.376   .     S
C5922  C5955   1.467   .     S
C5922  C5928   1.370   .     S
N5923  C8261   1.158   1_545 S
C5925  H5989   1.125   .     S
C5925  C5937   1.542   .     S
H5926  C5966   1.111   .     S
H5927  C5970   1.113   .     S
C5928  C5954   1.381   .     S
H5929  C5940   1.086   .     S
C5930  C5960   1.368   .     S
C5931  C5966   1.557   .     S
C5931  C5949   1.509   .     S
H5932  C5970   1.177   .     S
H5933  C5947   1.115   .     S
H5935  C5961   1.113   .     S
C5937  C5963   1.572   .     S
C5937  C5947   1.593   .     S
C5937  C6608   1.494   .     S
C5940  C5993   1.527   .     S
C5942  C5954   1.388   .     S
H5943  C5973   1.152   .     S
H5945  C5953   1.071   .     S
C5947  H419    1.060   1_655 S
C5948  C5971   1.435   .     S
C5948  O5481   1.406   1_556 S
C5950  C5970   1.558   .     S
C5950  C5960   1.548   .     S
H5951  C5966   1.087   .     S
C5954  O5991   1.396   .     S
C5958  C5964   1.423   .     S
H5959  C5496   1.152   1_556 S
C5961  H5969   1.076   .     S
O5962  C5964   1.413   .     S
O5962  C5974   1.406   .     S
H5965  C5970   1.087   .     S
C5967  C5988   1.412   .     S
C5967  C5458   1.393   1_556 S
H5972  C5976   1.119   .     S
C5973  C5993   1.513   .     S
C5974  C5480   1.422   1_556 S
C5974  C5474   1.414   1_556 S
C5975  C6692   1.515   .     S
C5975  C5976   1.380   .     S
H5979  C320    1.141   1_655 S
H5980  C5983   1.102   .     S
C5981  C5992   1.413   .     S
C5981  H5998   1.124   .     S
H5982  C5985   1.132   .     S
C5983  C6599   1.596   .     S
C5985  H6613   1.141   .     S
C5985  H6644   1.164   .     S
C5986  C8077   1.525   1_545 S
C5987  C5571   1.523   1_556 S
C5987  C5555   1.482   1_556 S
C5988  C5444   1.398   1_556 S
H5990  C320    1.145   1_655 S
O5991  C6007   1.391   .     S
C5992  O307    1.391   1_655 S
C5993  C5995   1.551   .     S
C5993  C8266   1.505   1_545 S
C5994  C6591   1.402   .     S
C5994  C6007   1.417   .     S
C5995  H6010   1.095   .     S
C5995  H8253   1.072   1_545 S
C5995  H8255   1.130   1_545 S
C5997  N6003   1.161   .     S
N5999  C434    1.206   1_655 S
C6000  C6675   1.520   .     S
H6001  C5571   1.131   1_556 S
C6002  C8244   1.398   1_545 S
C6002  C8266   1.369   1_545 S
C6007  C6618   1.423   .     S
H6011  C6182   1.031   .     S
H6012  C6161   1.112   .     S
O6013  C6033   1.384   .     S
O6013  C6148   1.415   .     S
H6014  C6123   1.107   .     S
C6015  O6136   1.459   .     S
C6015  C6075   1.402   .     S
C6015  C6033   1.435   .     S
C6016  C6058   1.351   .     S
C6016  C6044   1.354   .     S
C6016  C6172   1.554   .     S
C6017  C6038   1.391   .     S
C6017  O6026   1.389   .     S
C6017  C6102   1.382   .     S
H6018  C6893   1.114   .     S
H6019  C6185   1.059   .     S
C6020  C6022   1.437   .     S
C6020  C6116   1.535   .     S
C6020  C6091   1.539   .     S
C6020  C6107   1.563   .     S
H6021  C6133   1.105   .     S
C6022  C6064   1.424   .     S
C6022  C6059   1.398   .     S
N6023  C6024   1.143   .     S
C6024  C6038   1.473   .     S
N6025  C6087   1.149   .     S
O6026  C6078   1.398   .     S
H6027  C6116   1.114   .     S
C6028  C6940   1.540   .     S
C6028  H6098   1.104   .     S
C6028  H6180   1.134   .     S
C6028  H6077   1.131   .     S
H6029  C6111   1.088   .     S
O6030  C6037   1.363   .     S
O6030  C6169   1.404   .     S
C6031  C6160   1.347   .     S
C6031  C6034   1.498   .     S
C6031  C6156   1.392   .     S
C6032  C6033   1.380   .     S
C6032  C6122   1.402   .     S
C6032  C6035   1.402   .     S
C6034  C6149   1.593   .     S
C6034  C6115   1.490   .     S
C6035  N6130   1.139   .     S
C6036  H6141   1.110   .     S
C6036  C6940   1.539   .     S
C6036  H6935   1.133   .     S
C6036  C6787   1.517   .     S
C6037  C6052   1.341   .     S
C6038  C6101   1.382   .     S
C6039  C6054   1.372   .     S
C6039  O6127   1.363   .     S
C6039  C6106   1.387   .     S
C6040  O6120   1.363   .     S
C6040  C6100   1.365   .     S
C6040  C6046   1.371   .     S
H6041  C6618   1.061   1_554 S
H6042  C6160   1.134   .     S
C6043  C6122   1.388   .     S
C6043  C6075   1.396   .     S
C6043  O6143   1.379   .     S
C6044  C6061   1.392   .     S
C6044  C6166   1.498   .     S
C6045  C6062   1.366   .     S
C6045  C6750   1.548   .     S
C6045  C6184   1.373   .     S
C6046  C6106   1.376   .     S
C6046  O6146   1.405   .     S
H6047  C6137   1.115   .     S
H6048  C6059   1.101   .     S
O6049  C6122   1.350   .     S
O6049  C6089   1.384   .     S
C6050  H6067   1.096   .     S
C6050  C6081   1.373   .     S
C6050  C6073   1.419   .     S
H6051  C6062   1.095   .     S
C6052  C6070   1.349   .     S
C6052  C6135   1.348   .     S
H6053  C6091   1.080   .     S
C6054  O6082   1.407   .     S
C6054  C6100   1.355   .     S
H6055  C6111   1.144   .     S
C6056  C6106   1.380   .     S
C6056  N6103   1.148   .     S
O6057  C6101   1.373   .     S
O6057  C496    1.347   1_655 S
C6058  H6095   1.082   .     S
C6058  C6092   1.394   .     S
C6059  C6089   1.390   .     S
C6060  C6117   1.424   .     S
C6060  O6112   1.415   .     S
C6060  C6167   1.390   .     S
C6061  H6176   1.126   .     S
C6061  C6079   1.381   .     S
C6062  C6148   1.374   .     S
H6063  C6107   1.064   .     S
C6064  C6175   1.389   .     S
C6064  C6677   1.530   1_554 S
N6065  C6070   1.161   .     S
C6066  H6194   1.069   .     S
C6066  C6916   1.492   .     S
C6066  H6177   1.049   .     S
C6066  H6598   1.135   1_554 S
C6068  C6113   1.435   .     S
C6068  H6124   1.068   .     S
C6068  C6152   1.406   .     S
C6069  C6128   1.418   .     S
C6069  C6101   1.423   .     S
C6069  O568    1.443   1_655 S
C6071  H6094   1.131   .     S
C6071  C6181   1.390   .     S
C6071  C6169   1.416   .     S
H6072  C6137   1.154   .     S
C6073  C6113   1.374   .     S
C6073  O6074   1.343   .     S
O6074  C6117   1.376   .     S
C6075  C6080   1.389   .     S
H6076  C6116   1.101   .     S
C6078  C6142   1.395   .     S
C6078  C6155   1.405   .     S
C6079  C6092   1.438   .     S
C6079  O6082   1.372   .     S
C6080  N6674   1.169   1_554 S
C6081  C6152   1.369   .     S
C6081  C6114   1.541   .     S
H6083  C6133   1.074   .     S
H6084  C6123   1.128   .     S
H6085  C6116   1.094   .     S
C6086  C6175   1.373   .     S
C6086  O6143   1.368   .     S
C6086  C6089   1.449   .     S
C6087  C6100   1.365   .     S
H6090  C6107   1.104   .     S
C6091  H6654   1.079   1_554 S
C6091  C6677   1.576   1_554 S
C6092  O6127   1.384   .     S
C6093  C6097   1.420   .     S
C6093  C6138   1.412   .     S
C6093  O6146   1.385   .     S
H6096  C6133   1.103   .     S
C6097  O6120   1.376   .     S
C6097  C6682   1.428   1_554 S
H6099  C6162   1.168   .     S
C6102  O6158   1.338   .     S
C6102  C6128   1.395   .     S
C6104  N6164   1.148   .     S
C6104  C6167   1.389   .     S
C6105  O6136   1.438   .     S
C6105  C6185   1.377   .     S
C6105  C6148   1.416   .     S
C6107  H6168   1.083   .     S
O6108  C6308   1.452   .     S
O6108  C6179   1.378   .     S
H6109  C6137   1.143   .     S
C6110  C6151   1.546   .     S
C6110  C6114   1.530   .     S
C6110  H6147   1.103   .     S
C6111  C6172   1.511   .     S
C6111  C6297   1.541   .     S
O6112  C6113   1.399   .     S
C6114  C6161   1.503   .     S
C6114  C6137   1.538   .     S
C6115  H6154   1.139   .     S
C6115  H6380   1.126   .     S
C6115  H6375   1.079   .     S
C6117  C6171   1.380   .     S
C6118  H6377   1.074   .     S
C6118  C6166   1.566   .     S
C6118  H6192   1.115   .     S
C6118  H485    1.084   1_655 S
H6119  C6861   1.082   .     S
H6121  C6138   1.165   .     S
C6123  H6240   1.059   .     S
C6123  C6166   1.620   .     S
O6125  C6135   1.420   .     S
O6125  C6700   1.386   1_554 S
N6126  C6134   1.192   .     S
C6128  C6145   1.444   .     S
H6129  C6921   1.097   .     S
H6131  C6305   1.094   .     S
H6132  C6149   1.072   .     S
C6133  C6183   1.529   .     S
C6134  C6171   1.368   .     S
C6138  C6602   1.377   1_554 S
H6139  C6745   1.102   .     S
H6140  C6142   1.147   .     S
C6142  C6156   1.379   .     S
C6144  C6179   1.421   .     S
C6144  O6150   1.477   .     S
C6144  C6171   1.357   .     S
C6145  N624    1.162   1_655 S
C6149  C6151   1.551   .     S
C6149  H6170   1.077   .     S
O6150  C6381   1.414   .     S
C6151  C6156   1.514   .     S
C6151  C6152   1.515   .     S
H6153  C6161   1.148   .     S
C6155  O6158   1.417   .     S
C6155  C6160   1.381   .     S
H6157  C6893   1.139   .     S
H6159  C6182   1.101   .     S
C6161  H6187   1.084   .     S
C6162  H6178   1.050   .     S
C6162  C6174   1.533   .     S
C6162  C6787   1.624   .     S
H6163  C6930   1.100   .     S
H6165  C6173   1.107   .     S
C6166  C6358   1.542   .     S
C6167  C6179   1.413   .     S
C6172  C6358   1.574   .     S
C6172  C6232   1.546   .     S
C6173  H6905   1.132   .     S
C6173  C6174   1.541   .     S
C6173  H627    1.109   1_655 S
C6174  C1281   1.571   1_655 S
C6174  C588    1.490   1_655 S
C6175  H6697   1.105   1_554 S
C6181  C6183   1.479   .     S
C6182  C6183   1.548   .     S
C6182  H6189   1.101   .     S
C6184  C6185   1.401   .     S
C6186  C6884   1.363   .     S
C6186  H6939   1.073   .     S
H6188  C6877   1.072   .     S
H6190  C6216   1.181   .     S
C6191  C6750   1.532   .     S
C6191  C6884   1.396   .     S
H6193  C6359   1.197   .     S
H6195  C6874   1.130   .     S
C6196  H6339   1.097   .     S
C6196  H6219   1.089   .     S
C6196  C6343   1.563   .     S
C6196  C6336   1.565   .     S
C6197  C6245   1.425   .     S
C6197  O6273   1.380   .     S
C6197  C6199   1.363   .     S
C6198  C6241   1.552   .     S
C6198  C6317   1.576   .     S
C6198  C6312   1.549   .     S
C6198  C6239   1.518   .     S
C6199  C6279   1.428   .     S
C6199  O6277   1.406   .     S
C6200  C6302   1.533   .     S
C6200  C6306   1.349   .     S
C6200  C6289   1.365   .     S
H6201  C6298   1.093   .     S
C6202  O6217   1.438   .     S
C6202  C6261   1.371   .     S
C6202  C6285   1.407   .     S
N6203  C6318   1.137   .     S
C6204  C6302   1.510   .     S
C6204  C6312   1.328   .     S
C6204  C6357   1.390   .     S
H6205  C6364   1.104   .     S
O6206  C6376   1.391   .     S
O6206  C6369   1.444   .     S
H6207  C6212   1.057   .     S
H6208  C6238   1.116   .     S
H6209  C6258   1.077   .     S
H6210  C6311   1.151   .     S
C6211  C6223   1.389   .     S
C6212  H6271   1.088   .     S
C6212  H6242   1.108   .     S
C6212  C6234   1.492   .     S
C6213  C6236   1.427   .     S
C6213  N6264   1.148   .     S
C6214  C6550   1.515   .     S
C6214  C6272   1.481   .     S
C6214  C6248   1.536   .     S
C6214  C6538   1.527   .     S
C6215  H6250   1.138   .     S
C6215  C6249   1.413   .     S
C6215  C6227   1.373   .     S
C6216  H6334   1.148   .     S
C6216  C6967   1.502   .     S
C6216  H6218   1.091   .     S
O6217  C6294   1.383   .     S
H6220  C6282   1.105   .     S
H6221  C6316   1.136   .     S
H6222  C6317   1.127   .     S
C6223  C6315   1.436   .     S
C6223  O7065   1.335   .     S
H6224  C6341   1.119   .     S
C6225  C6298   1.495   .     S
C6225  C6350   1.468   .     S
C6225  C6316   1.465   .     S
C6225  C6348   1.469   .     S
H6226  C6364   1.073   .     S
C6227  C6297   1.518   .     S
C6227  C6232   1.413   .     S
C6228  H6280   1.108   .     S
C6228  H6296   1.104   .     S
C6228  C6302   1.512   .     S
C6228  C6234   1.560   .     S
C6229  H6295   1.060   .     S
C6229  C6293   1.367   .     S
C6229  C6251   1.349   .     S
O6230  C6285   1.410   .     S
O6230  C6293   1.318   .     S
H6231  C6358   1.131   .     S
C6232  C6305   1.379   .     S
C6233  O6277   1.400   .     S
C6233  C6306   1.385   .     S
C6233  C6299   1.429   .     S
C6234  C6238   1.564   .     S
C6234  C6289   1.543   .     S
H6235  C6263   1.084   .     S
C6236  C6352   1.414   .     S
C6236  C6314   1.436   .     S
H6237  C6358   1.143   .     S
C6238  H6288   1.128   .     S
C6238  H6300   1.153   .     S
C6239  H6379   1.078   .     S
C6239  H679    1.056   1_655 S
C6239  H650    1.084   1_655 S
C6241  H6330   1.111   .     S
C6241  H6309   1.064   .     S
C6241  C6302   1.485   .     S
C6243  C6249   1.454   .     S
C6243  O6262   1.370   .     S
C6243  C6305   1.409   .     S
H6244  C6347   1.129   .     S
C6245  C6365   1.400   .     S
C6245  C6270   1.388   .     S
N6246  C6392   1.144   .     S
N6247  C6281   1.119   .     S
C6248  H6340   1.131   .     S
C6248  H6344   1.121   .     S
C6248  H6303   1.119   .     S
C6249  O6253   1.370   .     S
C6251  C6276   1.356   .     S
C6251  C6367   1.535   .     S
C6252  C6365   1.442   .     S
C6252  O6964   1.383   .     S
C6252  C6279   1.321   .     S
O6253  C6255   1.413   .     S
O6254  C6352   1.377   .     S
O6254  C6349   1.395   .     S
C6255  C6301   1.395   .     S
C6255  C6261   1.422   .     S
H6256  C6298   1.118   .     S
O6257  C6965   1.497   .     S
O6257  C6315   1.336   .     S
C6258  C6299   1.348   .     S
C6258  C6289   1.380   .     S
H6259  C6316   1.074   .     S
H6260  C6268   1.110   .     S
C6261  C6281   1.421   .     S
O6262  C6301   1.400   .     S
C6263  C6276   1.407   .     S
C6263  C6294   1.385   .     S
N6265  C6284   1.159   .     S
C6266  C6338   1.514   .     S
H6267  C6310   1.121   .     S
C6268  H6320   1.087   .     S
C6268  H6346   1.161   .     S
C6268  C6297   1.540   .     S
H6269  C6357   1.112   .     S
C6270  N6325   1.168   .     S
C6272  H6345   1.133   .     S
C6272  H6481   1.067   .     S
C6272  H6326   1.150   .     S
O6273  C6299   1.414   .     S
H6274  C7111   1.125   .     S
H6275  C6359   1.143   .     S
C6276  C6323   1.506   .     S
H6278  C6298   1.087   .     S
C6279  C6284   1.337   .     S
C6282  H6333   1.150   .     S
C6282  C6338   1.534   .     S
C6282  H6337   1.098   .     S
H6283  C6525   1.085   .     S
C6285  C6287   1.410   .     S
C6286  C6347   1.513   .     S
C6287  C6301   1.380   .     S
C6287  C6318   1.402   .     S
H6290  C6351   1.120   .     S
N6291  C6355   1.141   .     S
H6292  C6351   1.132   .     S
C6293  C6294   1.464   .     S
C6297  C6359   1.516   .     S
H6304  C6306   1.118   .     S
C6307  C6310   1.385   .     S
C6307  C6367   1.486   .     S
C6308  C6381   1.450   .     S
C6308  C7008   1.357   .     S
C6310  C6315   1.378   .     S
C6311  H6322   1.029   .     S
C6311  C6338   1.534   .     S
C6311  H6321   1.105   .     S
C6312  C745    1.371   1_655 S
C6314  F6328   1.404   .     S
C6314  C6356   1.407   .     S
C6316  H6361   1.098   .     S
C6317  H6353   1.066   .     S
C6317  H6319   1.104   .     S
C6323  C6351   1.575   .     S
H6324  C6348   1.121   .     S
N6327  C6371   1.165   .     S
H6329  C6341   1.085   .     S
C6331  H6363   1.108   .     S
C6331  C6350   1.399   .     S
C6331  C1512   1.388   1_655 S
H6332  C6342   1.109   .     S
H6335  C6348   1.096   .     S
C6336  C6348   1.547   .     S
C6336  C6362   1.569   .     S
C6336  C658    1.466   1_655 S
C6338  C6347   1.539   .     S
C6341  H6366   1.080   .     S
C6342  C6349   1.392   .     S
C6342  C6378   1.403   .     S
C6343  C6364   1.543   .     S
C6343  C647    1.479   1_655 S
C6343  C1460   1.559   1_655 S
C6347  H6370   1.146   .     S
C6349  C6376   1.380   .     S
C6350  C6362   1.368   .     S
C6352  C6369   1.377   .     S
C6355  C7127   1.338   .     S
C6356  C6368   1.360   .     S
C6356  F6374   1.338   .     S
C6357  C735    1.410   1_655 S
C6359  H6372   1.100   .     S
H6360  C6550   1.060   .     S
C6362  C640    1.378   1_655 S
C6364  H746    1.088   1_655 S
C6365  O6984   1.430   .     S
C6368  C6369   1.390   .     S
C6368  C6982   1.397   .     S
H6373  C6550   1.120   .     S
C6376  C7166   1.397   .     S
C6378  C6405   1.358   .     S
C6381  C7111   1.429   .     S
C6382  H6436   1.079   .     S
C6382  H6517   1.103   .     S
C6382  C6513   1.571   .     S
C6382  H6423   1.105   .     S
C6383  C6499   1.540   .     S
C6383  H6463   1.184   .     S
C6383  H6482   1.086   .     S
C6383  C6513   1.503   .     S
C6385  C6446   1.538   .     S
C6385  C6505   1.553   .     S
C6385  C6442   1.554   .     S
C6386  H6506   1.153   .     S
C6386  C6488   1.381   .     S
C6386  C6475   1.399   .     S
O6387  C6437   1.348   .     S
O6387  C6439   1.393   .     S
C6388  H6540   1.098   .     S
C6388  H6502   1.107   .     S
C6388  C6513   1.511   .     S
C6388  H6511   1.087   .     S
C6389  C6461   1.422   .     S
C6389  C6465   1.426   .     S
C6389  O6396   1.436   .     S
C6390  N6433   1.152   .     S
C6390  C6529   1.424   .     S
H6391  C6547   1.088   .     S
C6392  C6397   1.381   .     S
C6393  H6398   1.098   .     S
C6393  H6456   1.074   .     S
C6393  C6510   1.571   .     S
C6393  C6499   1.541   .     S
C6394  H6447   1.133   .     S
C6394  H6490   1.105   .     S
C6394  C6510   1.495   .     S
C6394  H6494   1.108   .     S
C6395  C6435   1.554   .     S
C6395  C6404   1.534   .     S
C6395  C6408   1.549   .     S
C6395  C6453   1.554   .     S
O6396  C6485   1.382   .     S
C6397  C6468   1.365   .     S
C6397  C6460   1.403   .     S
C6399  H6504   1.097   .     S
C6399  C6420   1.399   .     S
C6399  C960    1.416   1_655 S
C6400  H6429   1.132   .     S
C6400  C6421   1.366   .     S
C6400  C6404   1.368   .     S
C6401  C6521   1.385   .     S
C6401  C6484   1.443   .     S
C6401  C6522   1.391   .     S
H6402  C6531   1.089   .     S
H6403  C6444   1.056   .     S
C6404  C7222   1.358   .     S
C6405  C7166   1.376   .     S
H6406  C6508   1.121   .     S
H6407  C6453   1.108   .     S
C6408  H6519   1.131   .     S
C6408  H6515   1.123   .     S
C6408  H6424   1.114   .     S
C6409  C6410   1.347   .     S
C6409  C6467   1.380   .     S
C6409  H6440   1.101   .     S
C6410  O6458   1.428   .     S
C6410  C6414   1.419   .     S
N6411  C6466   1.178   .     S
O6412  C6488   1.351   .     S
O6412  C6484   1.324   .     S
C6413  C6475   1.542   .     S
C6413  C6550   1.462   .     S
C6413  C6527   1.578   .     S
C6413  C6528   1.488   .     S
C6414  C6417   1.363   .     S
C6414  O6497   1.337   .     S
C6415  C6545   1.359   .     S
C6415  C6485   1.431   .     S
C6415  C6418   1.412   .     S
N6416  C7333   1.197   .     S
C6417  C6493   1.387   .     S
C6417  H6425   1.108   .     S
C6418  N6689   1.157   .     S
H6419  C6477   1.122   .     S
C6420  C6514   1.502   .     S
C6420  C815    1.410   1_655 S
C6421  C7198   1.438   .     S
C6421  O976    1.408   1_655 S
C6422  C6507   1.392   .     S
C6422  O6554   1.377   .     S
C6422  C6487   1.411   .     S
C6426  H6518   1.034   .     S
C6426  H6543   1.127   .     S
C6426  C6478   1.500   .     S
C6427  C6509   1.357   .     S
C6427  C6545   1.397   .     S
H6428  C6453   1.081   .     S
C6430  C6461   1.352   .     S
C6430  C6513   1.513   .     S
C6430  C6441   1.389   .     S
H6431  C6486   1.081   .     S
H6434  C6707   1.094   .     S
C6435  H6536   1.111   .     S
C6435  C7267   1.501   .     S
C6435  H6524   1.104   .     S
C6437  C6525   1.399   .     S
C6437  C6488   1.404   .     S
H6438  C6486   1.024   .     S
C6439  C6484   1.419   .     S
C6439  C6445   1.416   .     S
C6441  C6499   1.528   .     S
C6441  C6444   1.393   .     S
C6442  H6492   1.077   .     S
C6442  H6457   1.089   .     S
C6442  C6549   1.629   .     S
C6443  N6553   1.163   .     S
C6443  C6445   1.417   .     S
C6444  C6465   1.415   .     S
C6445  C6491   1.410   .     S
C6446  H6473   1.137   .     S
C6446  H6551   1.047   .     S
C6446  H6534   1.065   .     S
N6448  C6544   1.173   .     S
H6449  C6505   1.105   .     S
H6450  C6486   1.095   .     S
H6451  C6505   1.121   .     S
H6452  C6527   1.103   .     S
C6453  H6498   1.078   .     S
O6454  C6462   1.369   .     S
O6454  C6521   1.402   .     S
C6455  H6489   1.139   .     S
C6455  C6514   1.544   .     S
C6455  H6483   1.098   .     S
C6455  H6500   1.057   .     S
O6458  C6472   1.377   .     S
O6459  C6468   1.408   .     S
O6459  C978    1.395   1_655 S
C6460  C6472   1.373   .     S
C6460  O6497   1.400   .     S
C6461  H6480   1.107   .     S
C6462  C6464   1.435   .     S
C6462  C6535   1.374   .     S
C6464  O6526   1.396   .     S
C6464  C6547   1.381   .     S
C6465  O6479   1.381   .     S
C6466  C6471   1.392   .     S
C6467  C6493   1.373   .     S
C6467  C6499   1.506   .     S
C6468  C6470   1.398   .     S
O6469  C6470   1.389   .     S
O6469  C850    1.376   1_655 S
C6470  C6471   1.375   .     S
C6471  C6472   1.410   .     S
C6474  H6496   1.092   .     S
C6474  C6514   1.547   .     S
C6474  H985    1.200   1_655 S
C6474  C789    1.468   1_655 S
C6475  C6538   1.375   .     S
H6476  C6508   1.137   .     S
C6477  H6706   1.087   .     S
C6477  H6715   1.075   .     S
C6477  C6685   1.541   .     S
C6478  C6527   1.495   .     S
C6478  C6548   1.531   .     S
O6479  C6532   1.423   .     S
C6485  C6532   1.443   .     S
C6486  C6514   1.552   .     S
C6487  C6523   1.414   .     S
C6491  O6526   1.382   .     S
C6491  C6521   1.431   .     S
C6493  C6510   1.477   .     S
H6495  C6508   1.089   .     S
H6501  C965    1.122   1_655 S
O6503  C6530   1.439   .     S
O6503  C6512   1.375   .     S
C6505  H6541   1.137   .     S
C6507  C6548   1.407   .     S
C6508  C6510   1.560   .     S
C6509  C6532   1.408   .     S
C6509  C6544   1.424   .     S
C6512  C6567   1.373   .     S
N6516  C6522   1.168   .     S
C6523  H6542   1.071   .     S
C6523  C6528   1.378   .     S
C6525  C6538   1.389   .     S
C6527  H6552   1.124   .     S
C6528  C6548   1.359   .     S
C6529  C6530   1.337   .     S
C6531  C6549   1.503   .     S
C6531  C6599   1.555   .     S
H6533  C7181   1.096   .     S
H6537  C977    1.082   1_655 S
H6539  C7181   1.158   .     S
H6546  C965    1.111   1_655 S
H6555  C7226   1.125   .     S
C6556  C6695   1.351   .     S
C6556  C6617   1.541   .     S
C6556  C6591   1.418   .     S
C6557  H6605   1.133   .     S
C6557  H6620   1.110   .     S
C6557  H6667   1.110   .     S
C6557  C6593   1.567   .     S
C6558  C6650   1.497   .     S
C6558  C6655   1.362   .     S
C6558  C6673   1.407   .     S
C6559  C6661   1.440   .     S
C6559  C6651   1.400   .     S
C6559  F6581   1.381   .     S
C6560  C6628   1.438   .     S
C6560  N6625   1.159   .     S
C6561  H6662   1.081   .     S
C6561  H6657   1.072   .     S
C6561  C6617   1.523   .     S
C6561  H6634   1.156   .     S
H6562  C6586   1.076   .     S
C6563  C6669   1.405   .     S
C6563  C6661   1.369   .     S
C6563  O6569   1.411   .     S
C6564  H6578   1.087   .     S
C6564  H6577   1.121   .     S
C6564  C6632   1.556   .     S
C6564  H6566   1.048   .     S
C6565  H6573   1.131   .     S
C6565  H6587   1.104   .     S
C6565  C6617   1.489   .     S
C6565  C6677   1.544   .     S
C6567  C6680   1.367   .     S
C6567  H6652   1.144   .     S
H6568  C6687   1.161   .     S
O6569  C6638   1.378   .     S
C6570  H6631   1.081   .     S
C6570  H6670   1.104   .     S
C6570  H6615   1.142   .     S
C6570  C6650   1.527   .     S
C6571  H6699   1.106   .     S
C6571  H6584   1.141   .     S
C6571  C6692   1.620   .     S
C6571  H6709   1.099   .     S
C6572  C6702   1.349   .     S
C6572  C6704   1.416   .     S
C6572  C6685   1.503   .     S
C6574  C6673   1.562   .     S
C6574  C6637   1.517   .     S
C6574  C6646   1.486   .     S
C6574  C6714   1.529   .     S
H6575  C6687   1.136   .     S
H6576  C6626   1.121   .     S
H6579  C6656   1.182   .     S
H6580  C6606   1.114   .     S
H6582  C6646   1.117   .     S
F6583  C6651   1.385   .     S
H6585  C6694   1.135   .     S
C6586  C6692   1.497   .     S
C6586  H6710   1.074   .     S
C6588  O6668   1.377   .     S
C6588  C6655   1.384   .     S
C6588  C6638   1.406   .     S
C6589  C6635   1.527   .     S
C6589  C6649   1.539   .     S
C6589  C6619   1.573   .     S
C6589  C6607   1.504   .     S
H6590  C6606   1.100   .     S
C6591  H6691   1.104   .     S
C6592  C6656   1.507   .     S
C6592  C6672   1.528   .     S
C6592  C6680   1.564   .     S
C6592  C7528   1.483   .     S
C6593  C6635   1.571   .     S
C6593  C6687   1.539   .     S
C6593  C6602   1.492   .     S
H6594  C6656   1.120   .     S
H6595  C6633   1.120   .     S
H6596  C6639   1.098   .     S
H6597  C1145   1.075   1_655 S
H6598  C6066   1.135   1_556 S
C6599  C6694   1.597   .     S
H6600  C6646   1.104   .     S
H6601  C6624   1.138   .     S
C6602  C6607   1.399   .     S
C6602  C6138   1.377   1_556 S
C6603  H6711   1.108   .     S
C6603  C6638   1.403   .     S
C6603  C6673   1.364   .     S
H6604  C6639   1.076   .     S
C6606  C6617   1.511   .     S
C6606  H6609   1.129   .     S
C6607  C6682   1.384   .     S
C6608  H6616   1.110   .     S
C6608  H6676   1.089   .     S
C6608  H6693   1.122   .     S
C6610  C7547   1.433   .     S
C6610  N6653   1.145   .     S
H6611  C6655   1.124   .     S
H6612  C6687   1.086   .     S
H6614  C6707   1.055   .     S
C6618  C6695   1.390   .     S
C6618  H6041   1.061   1_556 S
C6619  C6632   1.533   .     S
C6619  H6647   1.175   .     S
C6619  H6648   1.065   .     S
H6621  C7514   1.100   .     S
H6622  C6626   1.071   .     S
H6623  C7514   1.141   .     S
C6624  H6641   1.059   .     S
C6624  H6681   1.066   .     S
C6624  C6685   1.567   .     S
C6626  C6692   1.542   .     S
C6626  H6688   1.104   .     S
H6627  C6629   1.098   .     S
C6628  C6651   1.394   .     S
C6628  C6669   1.361   .     S
C6629  H6665   1.119   .     S
C6629  C6650   1.634   .     S
C6629  H6679   1.056   .     S
H6630  C6672   1.052   .     S
C6632  C6642   1.522   .     S
C6632  C6639   1.547   .     S
C6633  C6683   1.390   .     S
C6633  C6642   1.406   .     S
C6635  H6666   1.071   .     S
C6635  H6645   1.114   .     S
C6636  H6684   1.111   .     S
C6636  C6690   1.397   .     S
C6636  C6649   1.371   .     S
C6637  C6658   1.371   .     S
C6639  H6660   1.076   .     S
H6640  C6658   1.138   .     S
C6642  C6649   1.379   .     S
H6643  C6682   1.058   .     S
C6646  C6650   1.545   .     S
H6654  C6091   1.079   1_556 S
C6656  H7546   1.076   .     S
C6658  C6700   1.394   .     S
H6659  C6694   1.079   .     S
C6661  C6712   1.383   .     S
H6663  C6686   1.119   .     S
H6664  C6672   1.054   .     S
O6668  C6669   1.424   .     S
H6671  C6672   1.051   .     S
N6674  C6080   1.169   1_556 S
C6675  C6686   1.563   .     S
C6675  C6704   1.502   .     S
C6675  C6707   1.540   .     S
C6677  C6695   1.572   .     S
C6677  C6064   1.530   1_556 S
C6677  C6091   1.576   1_556 S
H6678  C1128   1.130   1_655 S
C6680  C7498   1.373   .     S
C6682  C6097   1.428   1_556 S
C6683  C6690   1.437   .     S
C6683  O7519   1.389   .     S
C6685  C6707   1.531   .     S
C6686  H6696   1.110   .     S
C6690  O7347   1.398   .     S
C6694  H6701   1.078   .     S
H6697  C6175   1.105   1_556 S
H6698  C1086   1.124   1_655 S
C6700  O6125   1.386   1_556 S
C6702  H6703   1.108   .     S
H6705  C1128   1.148   1_655 S
H6708  C1034   1.099   1_655 S
H6713  C6714   1.110   .     S
C6716  C6808   1.386   .     S
C6716  H6868   1.088   .     S
C6716  C6804   1.387   .     S
C6717  C6773   1.423   .     S
C6717  O6814   1.406   .     S
C6717  C6777   1.338   .     S
N6718  C6909   1.143   .     S
H6719  C6877   1.132   .     S
C6720  H6794   1.063   .     S
C6720  C6876   1.406   .     S
C6720  C6767   1.409   .     S
C6721  H6844   1.077   .     S
C6721  H6882   1.083   .     S
H6722  C6756   1.077   .     S
H6723  C6744   1.091   .     S
C6724  H6878   1.072   .     S
C6724  H6895   1.085   .     S
C6724  C6725   1.648   .     S
C6724  C7538   1.453   1_554 S
C6725  C6852   1.503   .     S
C6725  C6819   1.490   .     S
C6725  C6774   1.490   .     S
H6726  C6774   1.144   .     S
C6727  C6920   1.381   .     S
C6727  C6874   1.424   .     S
C6727  O4629   1.361   1_554 S
C6728  C6801   1.375   .     S
C6728  C6910   1.379   .     S
C6728  C7151   1.409   .     S
C6729  C6777   1.391   .     S
C6729  N6912   1.146   .     S
O6730  C6840   1.336   .     S
O6730  C6773   1.363   .     S
C6731  C6836   1.388   .     S
C6731  C6770   1.413   .     S
C6731  O6743   1.433   .     S
C6732  C6842   1.427   .     S
C6732  O6818   1.422   .     S
C6732  C6902   1.374   .     S
C6733  C6737   1.541   .     S
C6733  C6772   1.526   .     S
C6734  C6828   1.387   .     S
C6734  C6856   1.395   .     S
C6734  O6795   1.359   .     S
H6735  C6744   1.128   .     S
C6736  C6786   1.408   .     S
C6736  C6770   1.387   .     S
C6736  H6807   1.078   .     S
C6737  H6867   1.214   .     S
C6737  H6751   1.111   .     S
C6737  H6754   1.090   .     S
C6738  H6834   1.151   .     S
C6738  H6741   1.099   .     S
C6738  H6838   1.093   .     S
C6738  C6803   1.535   .     S
N6739  C6862   1.173   .     S
C6740  C6780   1.395   .     S
C6740  O6846   1.379   .     S
C6740  C6851   1.419   .     S
C6742  C6850   1.464   .     S
C6742  N6858   1.164   .     S
O6743  C6755   1.423   .     S
C6744  C6860   1.526   .     S
C6744  C6866   1.541   .     S
C6745  H6753   1.068   .     S
C6745  C6859   1.594   .     S
C6745  H6747   1.093   .     S
C6746  O6785   1.399   .     S
C6746  C6927   1.357   .     S
C6746  C6764   1.446   .     S
C6748  C6787   1.461   .     S
C6748  C6828   1.359   .     S
C6748  C6849   1.421   .     S
H6749  C6791   1.134   .     S
C6750  C6791   1.507   .     S
C6752  C6791   1.577   .     S
C6752  C6822   1.493   .     S
C6752  C6889   1.545   .     S
C6752  C6884   1.484   .     S
C6755  C6821   1.416   .     S
C6755  C6830   1.369   .     S
C6756  C6852   1.388   .     S
C6756  C6809   1.417   .     S
C6757  C6836   1.378   .     S
C6757  C6776   1.538   .     S
C6757  C6786   1.386   .     S
C6758  H6873   1.095   .     S
C6758  H6879   1.101   .     S
C6758  H6888   1.073   .     S
C6758  C6857   1.503   .     S
C6759  C6776   1.522   .     S
C6759  C6780   1.363   .     S
C6759  C6906   1.390   .     S
H6760  C6811   1.061   .     S
H6761  C6877   1.112   .     S
C6762  H6833   1.101   .     S
C6762  H6848   1.110   .     S
C6762  H6832   1.114   .     S
C6762  C6860   1.583   .     S
C6763  H6790   1.087   .     S
C6763  H6816   1.093   .     S
C6763  H6886   1.014   .     S
C6763  C6860   1.511   .     S
C6764  C6855   1.398   .     S
C6764  O6768   1.352   .     S
C6765  C7712   1.418   .     S
C6765  O6831   1.360   .     S
C6765  C6871   1.384   .     S
C6766  C6779   1.393   .     S
C6766  H6924   1.052   .     S
C6766  C6829   1.380   .     S
C6767  C6840   1.426   .     S
C6767  O6814   1.358   .     S
O6768  C6826   1.442   .     S
C6769  C6849   1.365   .     S
C6769  C6856   1.422   .     S
C6769  H6845   1.067   .     S
C6770  O6784   1.421   .     S
C6771  C7702   1.518   .     S
C6771  C6843   1.367   .     S
C6771  C6876   1.366   .     S
C6772  C6902   1.411   .     S
C6772  C6887   1.388   .     S
C6773  C6850   1.358   .     S
C6774  H6799   1.137   .     S
C6774  C6803   1.564   .     S
H6775  C6871   1.082   .     S
C6776  C6893   1.496   .     S
C6776  C6921   1.514   .     S
C6777  C6800   1.394   .     S
H6778  C7704   1.046   .     S
C6779  C6803   1.477   .     S
C6779  C6819   1.387   .     S
C6780  H6782   1.101   .     S
H6781  C6811   1.101   .     S
N6783  C6802   1.198   .     S
O6784  C6821   1.410   .     S
O6785  C6825   1.354   .     S
C6786  C6859   1.481   .     S
C6787  C6923   1.494   .     S
C6788  C6800   1.399   .     S
C6788  C6850   1.365   .     S
C6788  O6795   1.366   .     S
O6789  C6933   1.388   .     S
O6789  C6805   1.394   .     S
C6791  H6932   1.166   .     S
N6792  C6870   1.174   .     S
O6793  C6864   1.437   .     S
O6793  C7038   1.405   .     S
C6796  C6916   1.530   .     S
C6796  C6874   1.357   .     S
C6796  C6901   1.366   .     S
C6797  C6890   1.376   .     S
C6797  C6862   1.424   .     S
C6797  C7143   1.426   .     S
H6798  C6902   1.093   .     S
C6800  O6854   1.384   .     S
C6801  O6853   1.392   .     S
C6801  C6812   1.385   .     S
C6802  C6806   1.358   .     S
C6803  C6811   1.530   .     S
C6804  C6860   1.526   .     S
C6804  C6892   1.411   .     S
C6805  C6864   1.427   .     S
C6805  C6806   1.412   .     S
C6806  C6815   1.465   .     S
C6808  O6929   1.373   .     S
C6808  C7411   1.420   1_554 S
C6809  O7609   1.401   .     S
C6809  C7510   1.419   1_554 S
N6810  C6817   1.171   .     S
C6811  H6913   1.080   .     S
C6812  C6900   1.385   .     S
C6812  O6846   1.398   .     S
H6813  C6897   1.091   .     S
C6815  C6823   1.431   .     S
C6815  O6818   1.379   .     S
C6817  C6824   1.449   .     S
C6819  C7526   1.348   1_554 S
O6820  C6823   1.377   .     S
O6820  C6842   1.362   .     S
C6821  C6824   1.389   .     S
C6822  H6928   1.115   .     S
C6822  H6904   1.086   .     S
C6823  C6827   1.373   .     S
C6824  C6825   1.401   .     S
C6825  C6826   1.403   .     S
C6826  C6830   1.377   .     S
C6827  C6909   1.374   .     S
C6827  C6864   1.423   .     S
C6828  H6841   1.050   .     S
C6829  O1326   1.388   1_655 S
C6829  C7399   1.423   1_554 S
C6830  C6938   1.406   .     S
O6831  C6890   1.358   .     S
H6835  C6889   1.099   .     S
C6836  H6917   1.114   .     S
N6837  C7522   1.131   1_554 S
H6839  C1314   1.117   1_655 S
C6840  C6843   1.390   .     S
C6842  C6869   1.397   .     S
C6843  H6896   1.101   .     S
C6849  C6940   1.496   .     S
C6851  O6853   1.405   .     S
C6851  C6944   1.434   .     S
C6852  C6947   1.389   .     S
O6854  C6856   1.389   .     S
C6855  H6926   1.084   .     S
C6855  C7698   1.403   .     S
C6857  C7694   1.553   .     S
C6857  C6922   1.621   .     S
C6857  C7704   1.525   .     S
C6859  C6877   1.509   .     S
C6859  C6893   1.536   .     S
C6861  H6865   1.121   .     S
C6861  H6931   1.160   .     S
C6861  C6940   1.499   .     S
H6863  C6897   1.065   .     S
C6866  C6901   1.508   .     S
C6866  C6892   1.491   .     S
C6866  C6914   1.533   .     S
C6869  H6907   1.141   .     S
C6869  C6887   1.389   .     S
C6870  C6900   1.400   .     S
C6871  C6925   1.361   .     S
C6872  H6898   1.130   .     S
C6872  C7673   1.538   .     S
C6872  C6919   1.571   .     S
C6872  H6908   1.115   .     S
H6875  C6914   1.080   .     S
C6876  C6934   1.552   .     S
H6880  C6927   1.120   .     S
H6881  C6903   1.086   .     S
H6883  C7691   1.064   .     S
H6885  C6897   1.115   .     S
C6887  C6919   1.538   .     S
C6889  H6894   1.088   .     S
C6889  H6937   1.149   .     S
C6890  C6945   1.406   .     S
C6891  C6910   1.409   .     S
C6891  C6900   1.395   .     S
C6891  O1318   1.378   1_655 S
C6892  C7383   1.361   1_554 S
C6897  C6934   1.514   .     S
H6899  C6911   1.126   .     S
C6901  C6903   1.361   .     S
C6903  C6920   1.422   .     S
C6906  C6944   1.374   .     S
C6906  C6967   1.557   .     S
C6910  O1321   1.364   1_655 S
C6911  C6922   1.321   .     S
C6911  C1329   1.362   1_655 S
C6914  C6916   1.510   .     S
C6914  H6946   1.125   .     S
C6916  C6930   1.544   .     S
H6918  C6942   1.108   .     S
C6921  H7142   1.108   .     S
C6921  C6967   1.510   .     S
C6922  C1331   1.378   1_655 S
C6923  C1314   1.380   1_655 S
C6923  C1281   1.401   1_655 S
C6925  C7629   1.329   .     S
C6925  C7702   1.549   .     S
C6927  C7655   1.350   .     S
O6929  C7480   1.399   1_554 S
C6930  H6943   1.072   .     S
C6930  H6936   1.089   .     S
C6933  C7038   1.395   .     S
C6933  C6963   1.385   .     S
C6934  C7699   1.538   .     S
C6934  C7691   1.594   .     S
C6938  N6956   1.167   .     S
H6941  C6942   1.097   .     S
C6942  C7538   1.560   1_554 S
C6942  H7543   1.095   1_554 S
C6944  H7033   1.088   .     S
C6945  O7612   1.385   .     S
C6945  C7148   1.383   .     S
C6947  C7348   1.364   1_554 S
C6947  C7538   1.571   1_554 S
C6948  C7118   1.412   .     S
C6948  C7027   1.336   .     S
C6948  H1537   1.100   1_655 S
C6949  H7077   1.092   .     S
C6949  H6987   1.096   .     S
C6949  H6992   1.107   .     S
C6949  C7075   1.519   .     S
H6950  C7063   1.090   .     S
C6951  H7253   1.132   .     S
C6951  H7128   1.094   .     S
C6951  C6988   1.572   .     S
C6951  H7098   1.088   .     S
H6952  C6963   1.117   .     S
H6953  C7144   1.122   .     S
C6954  H7019   1.100   .     S
C6954  H7003   1.113   .     S
C6954  C7075   1.550   .     S
C6954  C7039   1.524   .     S
C6955  C7116   1.390   .     S
C6955  C6997   1.376   .     S
C6957  H7028   1.100   .     S
C6957  H7099   1.043   .     S
C6957  H6973   1.100   .     S
C6957  C6958   1.524   .     S
C6958  C6961   1.553   .     S
C6958  C7004   1.513   .     S
C6958  C6970   1.562   .     S
H6959  C6961   1.095   .     S
H6960  C7092   1.108   .     S
C6961  H6966   1.108   .     S
C6961  C7010   1.554   .     S
C6962  H6989   1.112   .     S
C6962  H6995   1.083   .     S
C6962  H7069   1.101   .     S
C6962  C7082   1.554   .     S
C6963  C7053   1.396   .     S
O6964  C7107   1.362   .     S
C6965  C6999   1.410   .     S
C6965  C7127   1.358   .     S
C6967  C7092   1.537   .     S
C6968  C7057   1.397   .     S
C6968  C7104   1.403   .     S
C6969  C7148   1.381   .     S
C6969  C7143   1.377   .     S
C6969  O7056   1.384   .     S
C6970  H7058   1.087   .     S
C6970  H7115   1.101   .     S
C6970  H6998   1.126   .     S
O6971  C6997   1.371   .     S
O6971  C7169   1.424   .     S
C6972  C7123   1.417   .     S
C6972  C7008   1.392   .     S
C6972  C7087   1.523   .     S
H6974  C1460   1.070   1_655 S
C6975  C7061   1.406   .     S
C6975  C7076   1.391   .     S
C6975  C6999   1.434   .     S
H6976  C6977   1.076   .     S
C6977  H7154   1.040   .     S
C6977  H6986   1.069   .     S
C6977  C7087   1.472   .     S
H6978  C7092   1.118   .     S
H6979  C6993   1.087   .     S
C6980  C6988   1.520   .     S
C6980  H7147   1.112   .     S
C6980  H7130   1.129   .     S
C6980  H7036   1.052   .     S
H6981  C7074   1.133   .     S
C6982  N7156   1.134   .     S
H6983  C7016   1.065   .     S
O6984  C7068   1.459   .     S
N6985  C7071   1.174   .     S
C6988  C7902   1.499   .     S
C6988  C7254   1.512   .     S
C6990  C7096   1.406   .     S
C6990  C7039   1.510   .     S
C6990  C7045   1.419   .     S
C6991  C7127   1.419   .     S
C6991  O7089   1.418   .     S
C6991  C7076   1.427   .     S
C6993  H7145   1.111   .     S
C6993  H7026   1.130   .     S
C6993  C7018   1.542   .     S
C6994  C7059   1.585   .     S
C6994  C7054   1.471   .     S
C6994  C7053   1.539   .     S
C6994  C7123   1.544   .     S
H6996  C7066   1.112   .     S
C6999  O7065   1.433   .     S
H7000  C7016   1.083   .     S
N7001  C7061   1.144   .     S
H7002  C7055   1.114   .     S
C7004  C7057   1.381   .     S
C7004  C7015   1.375   .     S
C7005  C7141   1.412   .     S
C7005  C1454   1.369   1_655 S
C7005  C1468   1.529   1_655 S
H7006  C7011   1.160   .     S
H7007  C7144   1.121   .     S
C7008  H7155   1.091   .     S
H7009  C1358   1.117   1_655 S
C7010  C7011   1.544   .     S
C7010  C7015   1.564   .     S
C7010  C7023   1.588   .     S
C7011  H7012   1.083   .     S
C7011  C7017   1.576   .     S
H7013  C7016   1.061   .     S
H7014  C7059   1.062   .     S
C7015  C7024   1.408   .     S
C7016  C7017   1.512   .     S
C7017  C7063   1.553   .     S
C7017  C7022   1.555   .     S
C7018  C7900   1.527   .     S
C7018  C7117   1.505   .     S
C7018  C7064   1.502   .     S
H7020  O7124   0.943   .     S
H7021  C7096   1.123   .     S
C7022  C7023   1.374   .     S
C7022  C7032   1.366   .     S
C7023  C7114   1.412   .     S
C7024  H7025   1.094   .     S
C7024  C7104   1.349   .     S
C7027  C7049   1.411   .     S
C7027  C7073   1.521   .     S
C7029  O7106   1.465   .     S
C7029  C7122   1.381   .     S
C7029  C7097   1.446   .     S
H7030  C7054   1.087   .     S
C7031  C7044   1.396   .     S
C7031  C7330   1.423   .     S
C7031  C1616   1.439   1_655 S
C7032  H7088   1.120   .     S
C7032  C7891   1.420   .     S
H7034  C7102   1.119   .     S
H7035  C7064   1.085   .     S
H7037  C7063   1.111   .     S
C7038  C7052   1.458   .     S
C7039  C7134   1.568   .     S
C7039  C7049   1.510   .     S
C7040  N7140   1.143   .     S
H7041  C1390   1.118   1_655 S
C7042  H7109   1.190   .     S
C7042  H7110   1.052   .     S
C7042  C7087   1.520   .     S
C7042  H7113   1.103   .     S
C7043  O7089   1.345   .     S
C7043  C7084   1.389   .     S
C7043  C7120   1.379   .     S
C7044  C7101   1.413   .     S
C7044  O7046   1.407   .     S
C7045  C7075   1.538   .     S
C7045  C7055   1.379   .     S
O7046  C7118   1.399   .     S
H7047  C7144   1.128   .     S
H7048  C7063   1.102   .     S
C7049  C7074   1.359   .     S
H7050  C7066   1.088   .     S
C7051  C7082   1.487   .     S
C7051  C7052   1.321   .     S
C7051  C7053   1.376   .     S
C7052  H7108   1.105   .     S
C7054  C7087   1.537   .     S
C7054  H7085   1.148   .     S
C7055  C7068   1.425   .     S
O7056  C7097   1.329   .     S
C7057  H7133   1.157   .     S
C7059  H7131   1.126   .     S
C7059  C7082   1.529   .     S
H7060  C7129   1.099   .     S
C7062  C7129   1.382   .     S
C7062  C7890   1.392   .     S
C7062  O7124   1.380   .     S
C7064  H7091   1.134   .     S
C7064  H7100   1.045   .     S
C7066  C7075   1.503   .     S
C7066  H7070   1.062   .     S
H7067  C7153   1.092   .     S
C7068  C7107   1.414   .     S
C7071  C7139   1.428   .     S
C7072  C7118   1.450   .     S
C7072  C7074   1.380   .     S
C7072  O7093   1.368   .     S
C7073  C7134   1.467   .     S
C7073  C7152   1.541   .     S
C7073  C7144   1.517   .     S
C7076  O7086   1.385   .     S
C7078  C7153   1.497   .     S
C7078  C7146   1.540   .     S
C7078  C7135   1.546   .     S
C7078  C7102   1.542   .     S
H7079  C7146   1.057   .     S
C7080  C7132   1.521   .     S
C7080  C7135   1.386   .     S
C7080  C7121   1.444   .     S
O7081  C7104   1.397   .     S
H7083  C7120   1.093   .     S
C7084  C7121   1.387   .     S
C7084  O7086   1.418   .     S
H7090  C7134   1.078   .     S
C7092  H7105   1.117   .     S
O7093  C7101   1.374   .     S
N7094  C7151   1.186   .     S
H7095  C7149   1.147   .     S
C7096  C7107   1.355   .     S
C7097  C7141   1.418   .     S
C7101  C7139   1.372   .     S
C7102  H7125   1.031   .     S
C7102  H7137   1.085   .     S
H7103  C7121   1.124   .     S
O7106  C7143   1.423   .     S
C7111  C7123   1.362   .     S
N7112  C7116   1.125   .     S
C7114  C7871   1.368   .     S
C7114  H7119   1.035   .     S
C7117  C7723   1.403   .     S
C7117  C7129   1.370   .     S
C7120  C7135   1.373   .     S
C7122  H7136   1.134   .     S
C7122  C1454   1.374   1_655 S
O7126  C7219   1.371   .     S
O7126  C7205   1.377   .     S
C7132  C7153   1.551   .     S
C7132  C7202   1.558   .     S
C7132  C7241   1.522   .     S
C7134  H7138   1.104   .     S
C7139  C7228   1.393   .     S
C7141  H7157   1.114   .     S
C7146  H7159   1.102   .     S
C7146  H7175   1.154   .     S
C7148  C7789   1.440   .     S
C7149  C7205   1.407   .     S
C7149  C7202   1.393   .     S
H7150  C7152   1.068   .     S
C7152  H1352   1.086   1_655 S
C7152  H1425   1.126   1_655 S
C7153  H7324   1.148   .     S
H7158  C7902   1.058   .     S
C7160  C7227   1.371   .     S
C7160  C7302   1.406   .     S
C7160  O1734   1.377   1_655 S
N7161  C7332   1.171   .     S
H7162  C7176   1.131   .     S
C7163  H7249   1.078   .     S
C7163  C7248   1.390   .     S
C7163  C7338   1.372   .     S
H7164  C7277   1.135   .     S
H7165  C7240   1.082   .     S
C7166  H7178   1.089   .     S
H7167  C7210   1.145   .     S
C7168  N7539   1.159   .     S
C7168  C7216   1.382   .     S
C7169  C7176   1.418   .     S
C7170  C7215   1.378   .     S
C7170  C7252   1.386   .     S
C7170  O7173   1.356   .     S
H7171  C7177   1.104   .     S
C7172  C7190   1.454   .     S
C7172  C7312   1.530   .     S
C7172  C7220   1.556   .     S
C7172  C7241   1.494   .     S
O7173  C7273   1.385   .     S
C7174  C7278   1.359   .     S
C7174  C7182   1.392   .     S
C7174  C7255   1.500   .     S
C7176  C7239   1.354   .     S
C7177  H7179   1.087   .     S
C7177  C7188   1.550   .     S
C7177  C7283   1.533   .     S
C7180  C7186   1.362   .     S
C7180  H7331   1.180   .     S
C7180  C7197   1.406   .     S
C7181  C7267   1.559   .     S
C7181  C7213   1.532   .     S
C7182  C7307   1.364   .     S
C7182  H7261   1.080   .     S
C7183  C7311   1.414   .     S
C7183  O7201   1.416   .     S
C7183  C7210   1.394   .     S
H7184  C7312   1.133   .     S
C7185  H7290   1.077   .     S
C7185  C7246   1.377   .     S
C7185  C7275   1.364   .     S
C7186  O7203   1.380   .     S
C7186  C7275   1.480   .     S
H7187  C7272   1.072   .     S
C7188  C7246   1.529   .     S
C7188  C7285   1.572   .     S
C7188  C7243   1.525   .     S
C7189  C7301   1.416   .     S
C7189  O7284   1.370   .     S
C7189  C7262   1.447   .     S
C7190  H7192   1.088   .     S
C7190  H7274   1.103   .     S
C7190  H7258   1.105   .     S
C7191  H7269   1.138   .     S
C7191  H7279   1.084   .     S
C7191  C7255   1.505   .     S
C7191  H7308   1.080   .     S
H7193  C7337   1.064   .     S
C7194  H7310   1.124   .     S
C7194  H7328   1.128   .     S
C7194  H7554   1.158   .     S
C7194  C7542   1.505   .     S
H7195  C7292   1.116   .     S
H7196  C7236   1.132   .     S
C7197  C7230   1.447   .     S
C7197  C7246   1.394   .     S
C7198  C7316   1.390   .     S
C7198  O7266   1.362   .     S
C7199  C7965   1.394   .     S
C7199  C7334   1.379   .     S
C7199  O7284   1.348   .     S
H7200  C7241   1.076   .     S
O7201  C7330   1.354   .     S
C7202  C7220   1.410   .     S
O7203  C7999   1.430   .     S
C7204  O7207   1.394   .     S
C7204  C7286   1.464   .     S
C7204  C7211   1.423   .     S
C7205  C7295   1.431   .     S
C7206  C7217   1.398   .     S
C7206  C7276   1.413   .     S
C7206  O7207   1.400   .     S
O7208  C7334   1.433   .     S
O7208  C7262   1.454   .     S
C7209  C8060   1.438   .     S
C7209  C7244   1.366   .     S
C7209  C7286   1.361   .     S
C7210  C7231   1.354   .     S
C7211  C7212   1.388   .     S
C7211  C7250   1.346   .     S
C7212  N7234   1.152   .     S
C7213  C7226   1.514   .     S
C7213  C7236   1.480   .     S
C7213  C7238   1.510   .     S
C7214  C7267   1.478   .     S
C7214  C7238   1.397   .     S
C7214  C7215   1.403   .     S
C7215  H7281   1.058   .     S
C7216  C7273   1.374   .     S
C7216  C7262   1.394   .     S
C7217  H7256   1.112   .     S
C7217  C7254   1.441   .     S
H7218  C7513   1.097   .     S
C7219  C7300   1.393   .     S
C7219  C8078   1.392   .     S
C7220  C7235   1.348   .     S
H7221  C7304   1.082   .     S
C7222  C7267   1.546   .     S
C7222  C7316   1.371   .     S
C7223  C8053   1.381   .     S
C7223  C7334   1.404   .     S
C7223  H7492   1.107   .     S
O7224  C7252   1.383   .     S
O7224  C7237   1.408   .     S
H7225  C7335   1.117   .     S
C7226  H7296   1.108   .     S
C7226  H7271   1.107   .     S
C7227  C7321   1.379   .     S
C7227  C7333   1.444   .     S
C7228  O7232   1.406   .     S
C7228  C7330   1.409   .     S
H7229  C7335   1.080   .     S
C7230  C7285   1.549   .     S
C7230  C7277   1.532   .     S
C7231  C7318   1.450   .     S
C7231  C7320   1.544   .     S
O7232  C7311   1.381   .     S
H7233  C7304   1.085   .     S
C7235  H7291   1.108   .     S
C7235  C7295   1.390   .     S
C7236  H7309   1.118   .     S
C7236  H7303   1.075   .     S
C7237  C7301   1.379   .     S
C7237  C7273   1.400   .     S
C7238  C7264   1.391   .     S
C7239  C7243   1.422   .     S
C7239  C7283   1.507   .     S
C7240  H7260   1.110   .     S
C7240  C7255   1.508   .     S
C7240  C7320   1.535   .     S
C7241  H7265   1.124   .     S
H7242  C7297   1.123   .     S
C7243  C7329   1.428   .     S
C7244  C7250   1.417   .     S
C7244  O7247   1.463   .     S
C7245  O7247   1.456   .     S
C7245  C7248   1.392   .     S
C7245  C7326   1.418   .     S
C7248  O7251   1.347   .     S
C7250  O7251   1.370   .     S
C7252  C7264   1.396   .     S
C7254  C8064   1.389   .     S
C7255  C1711   1.491   1_655 S
H7257  C7304   1.127   .     S
C7259  C7335   1.507   .     S
C7259  C7337   1.538   .     S
C7259  C7297   1.542   .     S
C7259  C7318   1.522   .     S
H7263  C7316   1.098   .     S
C7264  H7319   1.163   .     S
O7266  C1636   1.390   1_655 S
C7268  H7288   1.126   .     S
C7268  C7325   1.353   .     S
C7268  C7278   1.423   .     S
H7270  C7335   1.105   .     S
C7272  C7311   1.392   .     S
C7272  C7318   1.355   .     S
C7275  O8024   1.414   .     S
C7276  O8014   1.419   .     S
C7276  C8063   1.392   .     S
C7277  H7294   1.141   .     S
C7277  H7299   1.060   .     S
C7278  C7320   1.526   .     S
H7280  C7285   1.107   .     S
C7282  N7293   1.161   .     S
C7282  C7301   1.391   .     S
C7283  C7304   1.485   .     S
C7283  C7292   1.561   .     S
C7286  O8014   1.387   .     S
O7287  C7321   1.367   .     S
O7287  C7307   1.425   .     S
H7289  C7337   1.117   .     S
C7292  H7298   1.075   .     S
C7292  H7327   1.122   .     S
C7295  O7305   1.425   .     S
C7297  H7306   1.069   .     S
C7297  C7320   1.559   .     S
C7300  C7989   1.373   .     S
C7300  O7305   1.393   .     S
C7302  C7313   1.419   .     S
C7302  O1742   1.418   1_655 S
C7307  C7325   1.438   .     S
C7312  H7322   1.106   .     S
C7312  H7323   1.127   .     S
C7313  C7317   1.405   .     S
C7313  C7315   1.399   .     S
O7314  C7315   1.400   .     S
O7314  C7325   1.378   .     S
C7315  C7321   1.393   .     S
C7317  N7336   1.189   .     S
C7326  H7550   1.098   .     S
C7326  C7507   1.375   .     S
C7332  C1722   1.352   1_655 S
C7337  H7943   1.094   .     S
C7338  C7507   1.374   .     S
C7338  C7444   1.495   .     S
C7340  O7464   1.364   .     S
C7340  C7421   1.408   .     S
C7340  C7352   1.406   .     S
H7341  C7391   1.092   .     S
C7342  O7475   1.400   .     S
C7342  C7447   1.395   .     S
C7342  C7489   1.377   .     S
C7343  C7488   1.402   .     S
C7343  C7497   1.459   .     S
C7343  C7395   1.372   .     S
C7344  C7374   1.334   .     S
C7344  C7449   1.382   .     S
C7344  C7403   1.397   .     S
C7345  H7440   1.065   .     S
C7345  H7477   1.092   .     S
C7345  H7377   1.039   .     S
C7345  C7462   1.523   .     S
C7346  C7527   1.416   .     S
C7346  O7357   1.364   .     S
C7346  C7372   1.433   .     S
O7347  C7407   1.369   .     S
C7348  H7521   1.080   .     S
C7348  C7510   1.405   .     S
C7348  C6947   1.364   1_556 S
C7349  C7455   1.464   .     S
C7349  O7357   1.386   .     S
C7349  C7448   1.370   .     S
C7350  C7376   1.377   .     S
C7350  C7414   1.511   .     S
C7350  C7508   1.392   .     S
C7351  C7359   1.440   .     S
C7351  C7361   1.395   .     S
C7351  O7355   1.423   .     S
C7352  C7483   1.394   .     S
C7352  O7534   1.341   .     S
H7353  C7383   1.135   .     S
C7354  C7367   1.459   .     S
C7354  O7355   1.432   .     S
C7354  C7430   1.366   .     S
C7356  C7469   1.529   .     S
C7356  C7498   1.508   .     S
C7356  C7528   1.564   .     S
C7358  H7517   1.073   .     S
C7358  C7414   1.532   .     S
C7358  H7473   1.088   .     S
C7358  C7459   1.574   .     S
C7359  C7448   1.410   .     S
C7359  O7360   1.375   .     S
O7360  C7367   1.385   .     S
C7361  C7486   1.371   .     S
C7361  C7455   1.379   .     S
C7362  C7366   1.518   .     S
C7362  C7436   1.520   .     S
C7362  C7507   1.517   .     S
C7362  C7441   1.546   .     S
C7363  H7419   1.077   .     S
C7363  C7497   1.492   .     S
C7363  H7452   1.127   .     S
C7363  H7472   1.139   .     S
H7364  C7471   1.112   .     S
C7366  H7386   1.096   .     S
C7366  H7375   1.108   .     S
C7366  H7385   1.113   .     S
C7367  C7368   1.406   .     S
C7368  H7369   1.071   .     S
C7368  C7404   1.377   .     S
H7370  C7381   1.117   .     S
H7371  C7460   1.118   .     S
C7372  O7476   1.405   .     S
C7372  C7491   1.350   .     S
H7373  C8263   1.052   .     S
C7374  N7515   1.140   .     S
C7376  C7512   1.393   .     S
C7376  H7393   1.128   .     S
H7378  C7391   1.091   .     S
H7379  C7466   1.132   .     S
H7380  O7461   0.963   .     S
C7381  H7494   1.135   .     S
C7381  C7497   1.533   .     S
C7381  C7414   1.507   .     S
C7382  C7421   1.418   .     S
C7382  C7402   1.485   .     S
C7382  C7470   1.362   .     S
C7383  C7411   1.425   .     S
C7383  C6892   1.361   1_556 S
C7384  C7395   1.378   .     S
C7384  C7412   1.397   .     S
C7384  H7428   1.070   .     S
C7387  C7495   1.417   .     S
C7387  O7511   1.402   .     S
C7387  C7500   1.369   .     S
C7388  N7420   1.179   .     S
C7388  C7456   1.464   .     S
C7389  C7500   1.376   .     S
C7389  C7480   1.411   .     S
C7389  C7522   1.440   .     S
O7390  C7490   1.419   .     S
O7390  C7500   1.397   .     S
C7391  C7542   1.560   .     S
C7391  H7454   1.052   .     S
H7392  C7421   1.083   .     S
C7394  H7396   1.132   .     S
C7394  H7397   1.051   .     S
C7394  H7432   1.108   .     S
C7394  C7402   1.527   .     S
C7395  C7414   1.571   .     S
C7398  O7464   1.407   .     S
C7398  C7481   1.440   .     S
C7398  C7456   1.372   .     S
C7399  C7526   1.400   .     S
C7399  O7525   1.371   .     S
C7399  C6829   1.423   1_556 S
H7400  C7405   1.077   .     S
C7401  C7470   1.498   .     S
C7401  C7404   1.558   .     S
C7401  C7405   1.579   .     S
C7401  C7471   1.537   .     S
C7402  C7405   1.468   .     S
C7402  C7466   1.471   .     S
C7403  O7531   1.449   .     S
C7403  C7423   1.422   .     S
C7404  C7433   1.381   .     S
C7405  H7409   1.096   .     S
H7406  C7439   1.156   .     S
C7407  C7422   1.399   .     S
C7407  C7447   1.391   .     S
H7408  C7487   1.155   .     S
H7410  C8263   1.174   .     S
C7411  O7442   1.386   .     S
C7411  C6808   1.420   1_556 S
C7412  C7485   1.426   .     S
C7412  O7475   1.378   .     S
C7413  O7545   1.428   .     S
C7413  C7520   1.363   .     S
C7413  C7502   1.447   .     S
H7415  O7545   0.984   .     S
H7416  C7430   1.106   .     S
C7417  O7531   1.364   .     S
C7417  C7439   1.422   .     S
H7418  C7466   1.074   .     S
C7422  C7458   1.412   .     S
C7422  O7519   1.395   .     S
C7423  C7533   1.375   .     S
O7424  C7529   1.410   .     S
O7424  C7449   1.385   .     S
H7425  C1783   1.055   1_655 S
H7426  C7441   1.144   .     S
H7427  C7466   1.051   .     S
H7429  C7436   1.070   .     S
C7430  C7433   1.369   .     S
O7431  C8264   1.365   .     S
O7431  C7446   1.447   .     S
C7433  C7462   1.572   .     S
H7434  C7491   1.090   .     S
H7435  C7460   1.128   .     S
C7436  C7444   1.541   .     S
C7436  H7468   1.080   .     S
C7437  N7504   1.169   .     S
C7437  C7448   1.325   .     S
C7438  C7456   1.384   .     S
C7438  C7506   1.388   .     S
C7438  O1889   1.404   1_655 S
C7439  C7469   1.341   .     S
C7441  H7474   1.133   .     S
C7441  H7451   1.112   .     S
O7442  C7450   1.435   .     S
N7443  C7479   1.149   .     S
C7444  C7535   1.474   .     S
C7444  C7513   1.502   .     S
H7445  C7487   1.055   .     S
C7446  C7449   1.398   .     S
C7446  C7533   1.387   .     S
C7447  C7465   1.403   .     S
C7450  C7480   1.404   .     S
C7450  C7495   1.446   .     S
C7453  C7458   1.408   .     S
C7453  N7551   1.168   .     S
C7455  O7476   1.426   .     S
C7457  C7524   1.390   .     S
C7457  C7542   1.549   .     S
C7457  C7535   1.393   .     S
C7458  C7489   1.421   .     S
C7459  C7508   1.516   .     S
C7459  C8216   1.593   .     S
C7459  C7537   1.510   .     S
C7460  C7497   1.595   .     S
C7460  H7509   1.058   .     S
O7461  C7502   1.399   .     S
C7462  C7471   1.537   .     S
C7462  C7514   1.528   .     S
H7463  C7524   1.100   .     S
C7465  N7467   1.149   .     S
C7470  C7483   1.390   .     S
C7471  H7482   1.082   .     S
O7478  C7485   1.380   .     S
O7478  C7489   1.411   .     S
C7479  C7495   1.385   .     S
C7480  O6929   1.399   1_556 S
C7481  O7534   1.411   .     S
C7481  C7547   1.400   .     S
C7483  H7544   1.062   .     S
N7484  C7486   1.155   .     S
C7485  C7488   1.398   .     S
C7487  H7516   1.094   .     S
C7487  C7538   1.545   .     S
C7488  H7493   1.137   .     S
C7490  C7532   1.413   .     S
C7490  C7512   1.417   .     S
C7491  C7496   1.395   .     S
C7496  C8190   1.510   .     S
C7496  C7530   1.389   .     S
H7499  C8124   1.090   .     S
H7501  C7528   1.092   .     S
C7502  C7524   1.433   .     S
H7503  C7527   1.076   .     S
H7505  C7526   1.121   .     S
C7506  C7547   1.355   .     S
C7506  O1164   1.412   1_655 S
C7508  C7532   1.422   .     S
C7510  O8143   1.371   .     S
C7510  C6809   1.419   1_556 S
O7511  C7512   1.368   .     S
C7513  H7518   1.122   .     S
C7513  C7542   1.490   .     S
C7514  H7549   1.116   .     S
C7520  H7541   1.113   .     S
C7520  C7535   1.388   .     S
C7522  N6837   1.131   1_556 S
H7523  C7528   1.105   .     S
O7525  C1775   1.389   1_655 S
C7526  C6819   1.348   1_556 S
C7527  C7530   1.351   .     S
C7529  C8095   1.397   .     S
C7529  C8264   1.458   .     S
C7530  C8252   1.489   .     S
C7532  H8226   1.133   .     S
C7533  C7552   1.439   .     S
N7536  C2715   1.145   1_655 S
C7537  H8238   1.060   .     S
C7537  H8157   1.097   .     S
C7537  H7540   1.098   .     S
C7538  C6947   1.571   1_556 S
C7538  C6942   1.560   1_556 S
C7538  C6724   1.453   1_556 S
H7543  C6942   1.095   1_556 S
H7548  C8095   1.102   .     S
H7555  C7573   1.083   .     S
C7556  H7651   1.115   .     S
C7556  H7668   1.123   .     S
C7556  C7649   1.524   .     S
C7556  H7643   1.109   .     S
C7557  C7564   1.448   .     S
C7557  O7680   1.459   .     S
C7557  C5460   1.411   1_565 S
C7558  C7669   1.432   .     S
C7558  C7617   1.374   .     S
C7558  O7626   1.392   .     S
C7559  C7630   1.536   .     S
C7559  H7683   1.143   .     S
C7559  H7701   1.135   .     S
C7559  C7592   1.521   .     S
H7560  C7681   1.097   .     S
O7561  C7615   1.391   .     S
O7561  C7577   1.378   .     S
H7562  C7610   1.126   .     S
H7563  C7622   1.069   .     S
C7564  O7657   1.381   .     S
C7564  C7679   1.391   .     S
H7565  C7589   1.091   .     S
H7566  C7573   1.119   .     S
C7567  H7684   1.072   .     S
C7567  C7593   1.403   .     S
C7567  C7617   1.401   .     S
C7568  H7579   1.074   .     S
C7568  C7702   1.544   .     S
C7568  H7637   1.066   .     S
C7568  C7623   1.562   .     S
C7569  C7627   1.550   .     S
C7569  C7676   1.538   .     S
C7569  C7594   1.506   .     S
C7569  C7634   1.530   .     S
H7570  C7572   1.093   .     S
C7571  H7616   1.122   .     S
C7571  H7642   1.061   .     S
C7571  C7592   1.536   .     S
C7571  H7632   1.067   .     S
C7572  H7700   1.080   .     S
C7572  C7592   1.524   .     S
C7572  H7647   1.031   .     S
C7573  C7673   1.524   .     S
C7573  H7639   1.164   .     S
H7574  C7575   1.133   .     S
C7575  H7585   1.114   .     S
C7575  C7623   1.559   .     S
C7575  H7578   1.096   .     S
H7576  C7648   1.174   .     S
C7577  C7598   1.462   .     S
C7577  C7844   1.387   .     S
C7580  C7652   1.373   .     S
C7580  N7586   1.128   .     S
H7581  C7595   1.099   .     S
H7582  C7691   1.123   .     S
C7583  H7672   1.059   .     S
C7583  H7638   1.125   .     S
C7583  C7623   1.605   .     S
C7583  H7650   1.148   .     S
C7584  N7599   1.164   .     S
C7584  C7607   1.413   .     S
H7587  C7595   1.095   .     S
H7588  C7704   1.074   .     S
C7589  H7715   1.122   .     S
C7589  H7707   1.091   .     S
C7589  C8178   1.520   1_554 S
H7590  C1962   1.102   1_655 S
C7591  C7704   1.543   .     S
C7591  C1912   1.536   1_655 S
C7591  C1263   1.478   1_655 S
C7591  C1331   1.555   1_655 S
C7592  C7655   1.505   .     S
C7593  C7606   1.411   .     S
C7593  C7718   1.512   .     S
C7594  H7603   1.056   .     S
C7594  H7664   1.071   .     S
C7595  C7673   1.539   .     S
H7596  C7608   1.167   .     S
H7597  C7699   1.097   .     S
C7598  C7652   1.374   .     S
C7598  O7662   1.426   .     S
H7600  C7675   1.123   .     S
C7601  H7611   1.081   .     S
C7601  C7624   1.428   .     S
C7601  C8182   1.428   1_554 S
C7602  C7649   1.637   .     S
C7602  H7709   1.053   .     S
C7602  H7613   1.100   .     S
C7602  H7898   1.072   .     S
C7604  C7622   1.549   .     S
C7604  C7665   1.538   .     S
C7604  C1962   1.488   1_655 S
C7604  C1911   1.522   1_655 S
H7605  C7627   1.069   .     S
C7606  C7649   1.555   .     S
C7606  C7669   1.372   .     S
C7607  C7653   1.411   .     S
C7607  C7644   1.376   .     S
C7608  H7625   1.063   .     S
C7608  C7661   1.556   .     S
C7608  H7682   1.078   .     S
O7609  C7716   1.387   .     S
C7610  H7656   1.120   .     S
C7610  C7878   1.536   .     S
C7610  C7718   1.558   .     S
O7612  C7712   1.372   .     S
H7614  C7694   1.086   .     S
C7615  C7689   1.385   .     S
C7615  C7677   1.428   .     S
C7617  O7618   1.405   .     S
O7618  C7653   1.429   .     S
C7619  C7658   1.432   .     S
C7619  C7635   1.405   .     S
C7619  C7636   1.424   .     S
H7620  C7694   1.121   .     S
C7621  C7677   1.394   .     S
C7621  C7665   1.396   .     S
C7621  H7693   1.102   .     S
C7622  H7685   1.154   .     S
C7622  H7671   1.062   .     S
C7623  C7629   1.571   .     S
C7624  C7634   1.365   .     S
C7624  C7661   1.521   .     S
O7626  C7636   1.411   .     S
C7627  C7661   1.625   .     S
C7627  H7663   1.141   .     S
C7628  H7862   1.103   .     S
C7628  C7630   1.568   .     S
C7628  H7904   1.110   .     S
C7628  C7907   1.499   .     S
C7629  C7631   1.341   .     S
C7630  C7690   1.615   .     S
C7630  C7698   1.529   .     S
C7631  H7660   1.122   .     S
C7631  C7712   1.376   .     S
H7633  C7648   1.142   .     S
C7634  C8239   1.364   1_554 S
C7635  N7666   1.146   .     S
C7636  C7653   1.393   .     S
H7640  C7674   1.079   .     S
C7641  C5559   1.445   1_565 S
C7641  C8162   1.377   1_554 S
C7641  C8260   1.382   1_554 S
C7644  O7680   1.365   .     S
C7644  C7658   1.424   .     S
H7645  C7679   1.124   .     S
C7646  O7697   1.380   .     S
C7646  C7681   1.387   .     S
C7648  C7661   1.538   .     S
C7648  H7678   1.155   .     S
C7649  C7809   1.536   .     S
C7652  C7810   1.379   .     S
H7654  C7669   1.138   .     S
C7655  C7698   1.439   .     S
O7657  C7658   1.366   .     S
O7662  C7677   1.402   .     S
C7665  C2048   1.371   1_655 S
H7667  C7675   1.093   .     S
C7670  C7696   1.394   .     S
C7670  N7687   1.131   .     S
C7674  C5559   1.535   1_565 S
C7674  H5426   1.112   1_565 S
C7674  C8270   1.507   1_554 S
C7675  H7695   1.060   .     S
C7675  C2023   1.604   1_655 S
C7676  C7681   1.376   .     S
C7679  C7708   1.410   .     S
H7686  C7699   1.148   .     S
H7688  C7703   1.132   .     S
C7689  C2048   1.415   1_655 S
C7689  H2019   1.053   1_655 S
C7691  C7702   1.552   .     S
H7692  C7703   1.054   .     S
C7694  H7713   1.082   .     S
C7696  C7716   1.406   .     S
C7696  C8258   1.404   1_554 S
C7699  H7706   1.142   .     S
C7703  H7857   1.077   .     S
C7703  C7878   1.534   .     S
H7705  C7720   1.100   .     S
C7708  C5437   1.406   1_565 S
C7708  C5559   1.496   1_565 S
H7710  C7874   1.068   .     S
H7711  C8162   1.053   1_554 S
F7714  C8258   1.364   1_554 S
C7716  C8091   1.407   1_554 S
C7717  H7836   1.136   .     S
C7717  C7783   1.498   .     S
C7717  H7835   1.096   .     S
C7717  C7786   1.547   .     S
C7718  C7832   1.536   .     S
C7718  C7809   1.523   .     S
H7719  C7781   1.051   .     S
C7720  H7905   1.097   .     S
C7720  H7819   1.103   .     S
C7720  C7878   1.548   .     S
C7721  C7855   1.538   .     S
C7721  C7795   1.535   .     S
C7721  C7841   1.543   .     S
C7721  C7726   1.545   .     S
H7722  C7900   1.071   .     S
C7723  C7861   1.506   .     S
C7723  C7751   1.396   .     S
C7724  C7829   1.514   .     S
C7724  C7868   1.384   .     S
C7724  C7978   1.449   .     S
C7725  C7912   1.365   .     S
C7725  C2973   1.398   1_565 S
C7726  C7771   1.394   .     S
C7726  C7739   1.442   .     S
C7727  C7844   1.375   .     S
C7727  C7810   1.439   .     S
C7727  O7869   1.412   .     S
C7729  C7739   1.340   .     S
C7729  C7734   1.378   .     S
C7729  H7744   1.059   .     S
C7730  C7864   1.520   .     S
C7730  H7748   1.098   .     S
C7730  H7880   1.135   .     S
C7730  H5664   1.095   1_565 S
H7731  C7883   1.112   .     S
C7732  C7803   1.389   .     S
C7732  C7830   1.463   .     S
C7732  O7778   1.387   .     S
C7733  C7786   1.551   .     S
C7733  C7765   1.357   .     S
C7733  C7843   1.400   .     S
C7734  C7792   1.411   .     S
C7734  O7822   1.371   .     S
N7735  C7793   1.150   .     S
C7736  C7870   1.399   .     S
C7736  C8045   1.552   .     S
C7736  C7752   1.425   .     S
N7737  C7824   1.152   .     S
H7738  C7841   1.139   .     S
C7739  C7861   1.575   .     S
C7741  C7812   1.426   .     S
C7741  O7796   1.384   .     S
C7741  C7804   1.354   .     S
C7742  H7940   1.080   .     S
C7742  C8045   1.561   .     S
C7742  H7797   1.091   .     S
C7742  C7769   1.556   .     S
H7743  C7855   1.131   .     S
C7745  O8030   1.377   .     S
C7745  C7847   1.351   .     S
C7745  C5654   1.441   1_565 S
H7746  C7854   1.125   .     S
C7747  O7831   1.382   .     S
C7747  C7885   1.440   .     S
C7747  C7791   1.388   .     S
C7750  C7820   1.435   .     S
C7750  N7802   1.162   .     S
C7751  C7890   1.403   .     S
C7751  H7842   1.084   .     S
C7752  C7839   1.376   .     S
C7752  C7769   1.571   .     S
H7753  C7886   1.196   .     S
H7754  C7886   1.043   .     S
N7755  C7849   1.148   .     S
H7756  C7895   1.044   .     S
O7757  C7772   1.355   .     S
O7757  C7784   1.431   .     S
N7758  C7789   1.133   .     S
C7759  C7847   1.369   .     S
C7759  N7825   1.184   .     S
H7760  C7868   1.076   .     S
C7761  H7813   1.108   .     S
C7761  C7832   1.422   .     S
C7761  C7772   1.392   .     S
H7762  C7886   1.108   .     S
C7763  C7786   1.481   .     S
C7763  C7798   1.401   .     S
C7763  C7816   1.386   .     S
H7764  C7841   1.080   .     S
C7765  C7783   1.531   .     S
C7765  C7850   1.387   .     S
H7766  C7791   1.135   .     S
C7767  C7878   1.507   .     S
C7767  C7832   1.416   .     S
C7767  C7828   1.386   .     S
O7768  H7845   0.956   .     S
O7768  C7890   1.348   .     S
C7769  C7779   1.496   .     S
C7769  C7848   1.507   .     S
O7770  C7776   1.460   .     S
O7770  C7806   1.417   .     S
C7771  H7777   1.151   .     S
C7771  C7792   1.394   .     S
C7772  C7882   1.385   .     S
H7773  C7828   1.071   .     S
H7774  C7902   1.107   .     S
H7775  C7897   1.045   .     S
C7776  C7804   1.417   .     S
C7776  C7800   1.378   .     S
O7778  C7885   1.359   .     S
C7779  H7801   1.085   .     S
C7779  H7814   1.102   .     S
C7779  H7873   1.114   .     S
C7780  C7847   1.383   .     S
C7780  O7840   1.424   .     S
C7780  C5587   1.468   1_565 S
C7781  C7783   1.580   .     S
C7781  H7888   1.096   .     S
C7781  H7879   1.011   .     S
H7782  C7911   1.092   .     S
C7783  C7854   1.530   .     S
C7784  C7876   1.449   .     S
C7784  C7823   1.373   .     S
H7785  C7895   1.138   .     S
C7786  C7833   1.526   .     S
H7787  C7897   1.150   .     S
H7788  C7909   1.115   .     S
O7790  C7891   1.376   .     S
O7790  C7812   1.453   .     S
C7791  C7990   1.411   .     S
C7792  O7869   1.389   .     S
C7793  C7823   1.429   .     S
C7794  C7844   1.382   .     S
C7794  N7875   1.176   .     S
C7795  H7865   1.094   .     S
C7795  H7834   1.093   .     S
C7795  H7881   1.135   .     S
O7796  C7871   1.340   .     S
C7798  C7864   1.538   .     S
C7798  C5652   1.381   1_565 S
C7799  C7867   1.420   .     S
C7799  O7893   1.395   .     S
C7799  C7870   1.371   .     S
C7800  O7817   1.364   .     S
C7800  C7820   1.400   .     S
C7803  C7876   1.376   .     S
C7803  C5667   1.414   1_565 S
C7804  C7849   1.442   .     S
H7805  C7839   1.048   .     S
C7806  C7826   1.437   .     S
C7806  C7850   1.372   .     S
C7807  O7889   1.422   .     S
C7807  C2299   1.379   1_655 S
C7807  C2295   1.410   1_655 S
N7808  C7821   1.176   .     S
C7809  H7866   1.102   .     S
C7809  H7908   1.134   .     S
C7810  O7822   1.392   .     S
H7811  C7816   1.096   .     S
C7812  C7820   1.390   .     S
C7815  C7816   1.344   .     S
C7815  O7840   1.379   .     S
C7815  C5665   1.403   1_565 S
O7817  C7826   1.371   .     S
H7818  C7858   1.103   .     S
C7821  C8078   1.442   .     S
C7823  C7830   1.388   .     S
C7824  C2299   1.372   1_655 S
C7826  C7843   1.387   .     S
H7827  C7900   1.090   .     S
C7828  C7882   1.460   .     S
C7829  C7911   1.532   .     S
C7829  C7895   1.517   .     S
C7829  C7858   1.519   .     S
C7830  O7831   1.401   .     S
C7833  C7864   1.590   .     S
C7833  H7860   1.126   .     S
C7833  H7851   1.096   .     S
H7837  C7848   1.134   .     S
H7838  C7848   1.134   .     S
C7839  C7867   1.419   .     S
C7841  H7853   1.058   .     S
C7843  H7852   1.121   .     S
H7846  C7850   1.068   .     S
C7848  H7887   1.099   .     S
C7854  H7892   1.104   .     S
C7854  H7903   1.092   .     S
C7855  H7859   1.118   .     S
C7855  C7861   1.546   .     S
H7856  C7858   1.049   .     S
C7858  H7863   1.182   .     S
C7861  C7900   1.523   .     S
C7864  C7886   1.542   .     S
C7867  O7889   1.416   .     S
C7868  C8071   1.409   .     S
C7870  H8049   1.129   .     S
C7871  C7891   1.431   .     S
H7872  C7912   1.109   .     S
C7874  H7896   1.110   .     S
C7874  C7907   1.516   .     S
C7876  O7884   1.378   .     S
C7877  C7885   1.392   .     S
C7877  C7921   1.344   .     S
C7877  H5662   1.069   1_565 S
C7882  O7884   1.349   .     S
C7883  C7907   1.565   .     S
C7883  H7899   1.091   .     S
O7893  C2295   1.372   1_655 S
H7894  C8047   1.095   .     S
C7895  H8070   1.141   .     S
C7897  H7906   1.075   .     S
C7902  C7948   1.578   .     S
C7909  C2088   1.373   1_655 S
C7909  C5457   1.395   1_565 S
C7911  H7994   1.094   .     S
C7911  C7948   1.535   .     S
C7912  C5641   1.403   1_565 S
C7913  C7914   1.415   .     S
C7913  O7927   1.404   .     S
C7913  C7933   1.343   .     S
C7914  H7922   1.086   .     S
C7914  C7916   1.336   .     S
H7915  C7932   1.099   .     S
C7916  C7991   1.546   .     S
C7916  C8001   1.394   .     S
O7917  C7958   1.389   .     S
O7917  C8015   1.387   .     S
C7918  C7946   1.567   .     S
C7918  C8029   1.562   .     S
C7918  C7929   1.505   .     S
C7918  C8083   1.520   .     S
O7919  C8028   1.369   .     S
O7919  C8035   1.429   .     S
H7920  C7973   1.118   .     S
C7921  C7975   1.521   .     S
C7921  C7990   1.449   .     S
C7923  H7950   1.084   .     S
C7923  C7991   1.505   .     S
C7923  H8046   1.034   .     S
C7923  C8004   1.553   .     S
H7924  C7964   1.079   .     S
H7925  C7939   1.084   .     S
C7926  C8013   1.384   .     S
C7926  C8007   1.365   .     S
C7926  C5695   1.382   1_565 S
O7927  C7934   1.400   .     S
N7928  C8076   1.138   .     S
C7929  C7965   1.357   .     S
C7929  C8053   1.393   .     S
C7930  C8027   1.364   .     S
C7930  O8052   1.380   .     S
C7930  C8069   1.430   .     S
C7931  C8066   1.392   .     S
C7931  C8022   1.388   .     S
C7931  H5787   1.094   1_565 S
C7932  C8068   1.373   .     S
C7932  C7935   1.435   .     S
C7933  C7977   1.376   .     S
C7933  O8043   1.364   .     S
C7934  C8033   1.419   .     S
C7934  C7987   1.387   .     S
C7935  O8023   1.384   .     S
C7935  C7942   1.437   .     S
H7936  C7959   1.084   .     S
H7937  C7952   1.107   .     S
C7938  C7949   1.497   .     S
C7938  C7946   1.384   .     S
C7938  C7984   1.362   .     S
C7939  C7962   1.351   .     S
C7939  C8055   1.407   .     S
C7941  H8065   1.111   .     S
C7941  C8077   1.509   .     S
C7941  H8025   1.097   .     S
C7941  C5824   1.514   1_565 S
C7942  O7981   1.389   .     S
C7942  C8274   1.408   .     S
H7944  C7965   1.096   .     S
H7945  C7971   1.072   .     S
C7946  C7964   1.344   .     S
H7947  C8051   1.098   .     S
C7948  C7978   1.493   .     S
C7948  C8064   1.538   .     S
C7949  C7971   1.554   .     S
C7949  C8029   1.541   .     S
C7949  C7995   1.570   .     S
C7951  C8035   1.339   .     S
C7951  C8069   1.457   .     S
C7951  C2481   1.413   1_655 S
C7952  H7972   1.110   .     S
C7952  H8021   1.098   .     S
C7952  C8041   1.568   .     S
O7953  C8038   1.375   .     S
O7953  C7982   1.356   .     S
H7954  C8029   1.091   .     S
C7955  C7987   1.368   .     S
C7955  O8024   1.389   .     S
C7955  C7999   1.457   .     S
H7956  C8051   1.117   .     S
N7957  C7983   1.126   .     S
C7958  C8036   1.429   .     S
C7958  C8006   1.433   .     S
C7959  H8031   1.124   .     S
C7959  H8019   1.106   .     S
C7959  C8041   1.525   .     S
H7960  C7971   1.090   .     S
H7961  C8054   1.119   .     S
C7962  C8022   1.411   .     S
C7962  C7991   1.517   .     S
C7963  C8017   1.551   .     S
C7963  H8008   1.084   .     S
C7963  C7991   1.551   .     S
C7964  C8028   1.411   .     S
H7966  C8054   1.112   .     S
N7967  C8007   1.172   .     S
O7968  C8055   1.347   .     S
O7968  C8013   1.369   .     S
C7969  C8071   1.386   .     S
C7969  C8039   1.438   .     S
C7969  O8003   1.400   .     S
N7970  C8060   1.181   .     S
C7971  H8073   1.044   .     S
C7973  H7985   1.115   .     S
C7973  C8044   1.524   .     S
C7973  H7996   1.114   .     S
C7974  C8045   1.560   .     S
C7974  C8047   1.386   .     S
C7974  C8018   1.361   .     S
C7975  C8057   1.504   .     S
C7975  C8054   1.549   .     S
C7975  C5698   1.532   1_565 S
H7976  C7984   1.097   .     S
C7977  C8001   1.380   .     S
C7977  H8012   1.072   .     S
C7978  C8039   1.377   .     S
H7979  C8039   1.082   .     S
H7980  C8040   1.073   .     S
O7981  C8061   1.376   .     S
C7982  C7984   1.396   .     S
C7982  C8028   1.447   .     S
C7983  C8027   1.393   .     S
H7986  C7995   1.121   .     S
C7987  C7992   1.373   .     S
C7988  C8005   1.397   .     S
C7988  O8030   1.405   .     S
C7988  C5682   1.397   1_565 S
C7989  C8015   1.420   .     S
C7989  C8016   1.353   .     S
C7990  C8044   1.561   .     S
C7992  N7993   1.132   .     S
C7995  H8002   1.098   .     S
C7995  H8034   1.074   .     S
C7997  O8023   1.400   .     S
C7997  C8061   1.455   .     S
C7997  C2379   1.373   1_655 S
H7998  C8005   1.100   .     S
C7999  C8032   1.379   .     S
H8000  C8063   1.117   .     S
C8001  C8004   1.488   .     S
C8004  C8259   1.591   .     S
C8004  C8243   1.526   .     S
C8005  C8057   1.364   .     S
C8006  C8047   1.391   .     S
C8006  O8011   1.360   .     S
H8009  C8036   1.110   .     S
C8010  H8058   1.109   .     S
C8010  C8044   1.489   .     S
O8011  C8059   1.386   .     S
C8013  C5828   1.419   1_565 S
C8015  C8059   1.474   .     S
C8016  N8037   1.158   .     S
C8017  C8022   1.559   .     S
C8017  C8074   1.516   .     S
C8018  C8041   1.544   .     S
C8018  C8036   1.406   .     S
H8020  C8029   1.053   .     S
H8026  C5804   1.115   1_565 S
C8027  C8038   1.381   .     S
C8032  C8042   1.434   .     S
C8032  C8033   1.373   .     S
C8033  O8043   1.370   .     S
C8035  C8038   1.415   .     S
C8040  H8056   1.032   .     S
C8040  H8050   1.122   .     S
C8040  C8214   1.540   .     S
C8041  C8051   1.530   .     S
C8042  N8048   1.184   .     S
C8044  C8054   1.542   .     S
C8045  C8051   1.518   .     S
O8052  C2411   1.401   1_655 S
C8053  C8209   1.516   .     S
C8055  C8066   1.423   .     S
C8057  C5687   1.385   1_565 S
C8059  C8078   1.372   .     S
C8061  C2471   1.398   1_655 S
H8062  C8243   1.097   .     S
C8063  C8064   1.360   .     S
C8066  O5827   1.386   1_565 S
H8067  C8262   1.086   .     S
C8068  C8077   1.530   .     S
C8068  C8273   1.362   .     S
C8069  O2484   1.396   1_655 S
O8072  C5695   1.359   1_565 S
O8072  C5740   1.424   1_565 S
C8074  H3232   1.179   1_565 S
C8074  H5762   1.126   1_565 S
C8074  H5705   1.102   1_565 S
H8075  C8259   1.085   .     S
C8076  C2555   1.438   1_655 S
C8077  C8122   1.595   .     S
C8077  C5986   1.525   1_565 S
C8079  C8254   1.376   .     S
C8079  O8171   1.427   .     S
C8079  C8272   1.422   .     S
N8080  C8189   1.176   .     S
C8081  C8224   1.395   .     S
C8081  C8130   1.382   .     S
C8081  C8091   1.426   .     S
C8082  C8134   1.478   .     S
C8082  C8107   1.508   .     S
C8082  C8169   1.528   .     S
C8082  C8110   1.505   .     S
C8083  H8234   1.055   .     S
C8083  H8241   1.077   .     S
C8083  C8209   1.525   .     S
H8084  C8117   1.137   .     S
N8085  C8118   1.179   .     S
H8086  C8239   1.081   .     S
C8087  C8203   1.359   .     S
C8087  C8153   1.567   .     S
C8087  C8088   1.415   .     S
C8088  C8251   1.377   .     S
C8088  C8121   1.502   .     S
C8089  H8219   1.079   .     S
C8089  H8101   1.186   .     S
C8089  C8190   1.591   .     S
C8089  C8252   1.522   .     S
C8090  C8230   1.430   .     S
C8090  O8171   1.437   .     S
C8090  C8126   1.399   .     S
C8091  O8143   1.378   .     S
C8091  C7716   1.407   1_556 S
C8092  C8151   1.361   .     S
C8092  C8225   1.391   .     S
C8092  H8175   1.142   .     S
C8093  C8174   1.395   .     S
C8093  C8144   1.428   .     S
C8093  O8235   1.403   .     S
H8094  C8169   1.066   .     S
C8095  C8206   1.428   .     S
C8096  H8197   1.141   .     S
C8096  H8158   1.083   .     S
C8096  C8121   1.519   .     S
C8096  C8153   1.483   .     S
C8097  C8172   1.397   .     S
C8097  O8192   1.398   .     S
C8097  C8225   1.445   .     S
C8098  H8194   1.098   .     S
C8098  H8150   1.085   .     S
C8098  C8201   1.532   .     S
C8098  H8137   1.098   .     S
H8099  C8196   1.087   .     S
H8100  C8142   1.112   .     S
H8102  C8125   1.111   .     S
C8103  H8156   1.133   .     S
C8103  H8112   1.148   .     S
C8103  H8119   1.128   .     S
C8103  C8211   1.550   .     S
C8104  C8125   1.532   .     S
C8104  C8269   1.508   .     S
C8104  C8113   1.522   .     S
C8104  C2656   1.532   1_655 S
H8105  C8183   1.121   .     S
H8106  C8263   1.124   .     S
C8107  C8187   1.403   .     S
C8107  C8206   1.410   .     S
H8108  C8232   1.105   .     S
H8109  C8141   1.128   .     S
C8110  C8201   1.535   .     S
C8110  H8123   1.097   .     S
C8110  H8198   1.130   .     S
C8111  C8200   1.427   .     S
C8111  C8244   1.391   .     S
C8111  O8165   1.384   .     S
C8113  C8121   1.516   .     S
C8113  H8180   1.055   .     S
C8113  H8265   1.128   .     S
C8114  C8178   1.531   .     S
C8114  C8172   1.361   .     S
C8114  C8151   1.377   .     S
H8115  C8146   1.070   .     S
H8116  C8125   1.138   .     S
C8117  H8186   1.084   .     S
C8117  C8153   1.555   .     S
C8117  H8166   1.133   .     S
C8118  C8179   1.456   .     S
O8120  C8236   1.349   .     S
O8120  C8223   1.395   .     S
C8121  C8237   1.541   .     S
C8122  H8168   1.135   .     S
C8122  H8202   1.149   .     S
C8122  C8211   1.496   .     S
C8124  H8222   1.130   .     S
C8124  C8178   1.554   .     S
C8124  C8190   1.563   .     S
C8125  H8227   1.077   .     S
C8126  C8147   1.374   .     S
C8126  O8246   1.383   .     S
H8127  C8148   1.088   .     S
C8128  C8199   1.351   .     S
C8128  H8139   1.124   .     S
H8129  C8141   1.081   .     S
C8130  C8258   1.411   .     S
C8130  F8218   1.359   .     S
H8131  C8216   1.082   .     S
O8132  C8195   1.350   .     S
O8132  C2684   1.453   1_655 S
H8133  C8243   1.102   .     S
C8134  C8199   1.388   .     S
C8134  C8154   1.366   .     S
H8135  C8216   1.126   .     S
H8136  C8172   1.068   .     S
H8138  C8216   1.128   .     S
H8140  C8185   1.181   .     S
C8141  H8161   1.079   .     S
C8141  C8270   1.547   .     S
C8142  C8209   1.482   .     S
C8142  H8220   1.075   .     S
C8142  H8213   1.091   .     S
C8144  C8179   1.360   .     S
C8144  O8240   1.384   .     S
C8145  O8242   1.361   .     S
C8145  C8223   1.425   .     S
C8145  C8230   1.369   .     S
C8146  H8149   1.083   .     S
C8146  H8228   1.099   .     S
C8146  C8252   1.494   .     S
C8147  C8223   1.373   .     S
C8147  C8261   1.393   .     S
C8148  H8170   1.071   .     S
C8148  H8191   1.070   .     S
C8148  C8201   1.489   .     S
C8151  C8190   1.587   .     S
C8152  C8230   1.399   .     S
C8152  N8231   1.180   .     S
C8153  C8196   1.550   .     S
C8154  H8212   1.095   .     S
C8155  C8257   1.411   .     S
C8155  C8236   1.413   .     S
C8155  O8242   1.343   .     S
H8159  C8196   1.127   .     S
C8160  C8181   1.411   .     S
C8160  O8165   1.402   .     S
C8160  C8179   1.418   .     S
C8162  C8236   1.424   .     S
C8162  C7641   1.377   1_556 S
C8162  H7711   1.053   1_556 S
H8163  C8169   1.125   .     S
H8164  C8243   1.099   .     S
C8167  O8235   1.390   .     S
C8167  C8239   1.406   .     S
C8167  C8182   1.423   .     S
C8169  C8214   1.477   .     S
H8173  C8196   1.102   .     S
C8174  C8181   1.394   .     S
C8174  C8189   1.450   .     S
H8176  C8221   1.103   .     S
O8177  C8225   1.364   .     S
C8178  C8232   1.520   .     S
C8178  C7589   1.520   1_556 S
C8181  O8193   1.447   .     S
C8182  O8240   1.372   .     S
C8182  C7601   1.428   1_556 S
C8183  H8204   1.086   .     S
C8183  C8209   1.533   .     S
C8183  H8271   1.103   .     S
H8184  C8185   1.129   .     S
C8185  C8214   1.553   .     S
C8185  H8208   1.086   .     S
C8187  C8264   1.416   .     S
C8187  H8229   1.166   .     S
N8188  C8224   1.136   .     S
O8193  C8200   1.357   .     S
C8195  C8203   1.392   .     S
C8195  C2681   1.407   1_655 S
C8199  C8201   1.565   .     S
C8200  C8221   1.412   .     S
C8203  H8217   1.088   .     S
H8205  C8232   1.058   .     S
C8206  C8214   1.448   .     S
H8207  C8232   1.126   .     S
H8210  C8254   1.174   .     S
C8211  C8273   1.551   .     S
C8211  C8262   1.525   .     S
H8215  C8259   1.099   .     S
C8221  C8266   1.358   .     S
H8233  C8259   1.090   .     S
C8237  C8249   1.398   .     S
C8237  C8269   1.405   .     S
C8239  C7634   1.364   1_556 S
C8244  H8250   1.147   .     S
C8244  C6002   1.398   1_565 S
H8245  C8274   1.102   .     S
O8246  C8272   1.413   .     S
H8247  C8257   1.062   .     S
H8248  C8249   1.120   .     S
C8249  C2707   1.422   1_655 S
C8251  H2611   1.100   1_655 S
C8251  C2681   1.378   1_655 S
C8252  C8263   1.529   .     S
H8253  C5995   1.072   1_565 S
C8254  C2676   1.374   1_655 S
H8255  C5995   1.130   1_565 S
H8256  C8262   1.119   .     S
C8257  C8260   1.396   .     S
C8258  F7714   1.364   1_556 S
C8258  C7696   1.404   1_556 S
C8260  C8270   1.561   .     S
C8260  C7641   1.382   1_556 S
C8261  N5923   1.158   1_565 S
C8262  H8267   1.116   .     S
C8266  C5993   1.505   1_565 S
C8266  C6002   1.369   1_565 S
C8269  C2542   1.392   1_655 S
C8270  C5854   1.527   1_565 S
C8270  C7674   1.507   1_556 S
C8272  C2562   1.333   1_655 S
C8273  C8274   1.387   .     S
