data_PIM-1
_audit_creation_date              2020-01-09
_audit_creation_method            'Materials Studio'
_symmetry_space_group_name_H-M    'P1'
_symmetry_Int_Tables_number       1
_symmetry_cell_setting            triclinic
loop_
_symmetry_equiv_pos_as_xyz
  x,y,z
_cell_length_a                    48.4060
_cell_length_b                    48.4060
_cell_length_c                    48.4060
_cell_angle_alpha                 90.0000
_cell_angle_beta                  90.0000
_cell_angle_gamma                 90.0000
loop_
_atom_site_label
_atom_site_type_symbol
_atom_site_fract_x
_atom_site_fract_y
_atom_site_fract_z
_atom_site_U_iso_or_equiv
_atom_site_adp_type
_atom_site_occupancy
H1     H     0.32239   0.31394   0.46692   0.00000  Uiso   1.00
C2     C     0.34724   0.29942   0.41396   0.00000  Uiso   1.00
C3     C     0.46098   0.38634   0.31334   0.00000  Uiso   1.00
C4     C     0.42723   0.30959   0.28357   0.00000  Uiso   1.00
C5     C     0.35345   0.32817   0.27108   0.00000  Uiso   1.00
H6     H     0.49980   0.32052   0.30289   0.00000  Uiso   1.00
C7     C     0.45167   0.33280   0.32037   0.00000  Uiso   1.00
H8     H     0.33136   0.27231   0.35988   0.00000  Uiso   1.00
O9     O     0.31334   0.41939   0.39267   0.00000  Uiso   1.00
O10    O     0.44206   0.28367   0.32433   0.00000  Uiso   1.00
H11    H     0.47629   0.38618   0.24798   0.00000  Uiso   1.00
C12    C     0.26313   0.32754   0.44501   0.00000  Uiso   1.00
C13    C     0.24367   0.25965   0.41685   0.00000  Uiso   1.00
N14    N     0.35788   0.22524   0.41021   0.00000  Uiso   1.00
C15    C     0.24564   0.26534   0.46707   0.00000  Uiso   1.00
N16    N     0.38404   0.23905   0.22702   0.00000  Uiso   1.00
C17    C     0.33828   0.30535   0.28663   0.00000  Uiso   1.00
C18    C     0.46377   0.39155   0.34371   0.00000  Uiso   1.00
O19    O     0.23355   0.33549   0.32898   0.00000  Uiso   1.00
C20    C     0.28049   0.32029   0.33431   0.00000  Uiso   1.00
C21    C     0.30632   0.31574   0.32298   0.00000  Uiso   1.00
O22    O     0.24729   0.34822   0.27197   0.00000  Uiso   1.00
H23    H     0.50720   0.28531   0.27152   0.00000  Uiso   1.00
H24    H     0.44793   0.42445   0.29257   0.00000  Uiso   1.00
C25    C     0.26931   0.35589   0.39737   0.00000  Uiso   1.00
C26    C     0.37565   0.42887   0.34723   0.00000  Uiso   1.00
O27    O     0.35466   0.41017   0.33960   0.00000  Uiso   1.00
H28    H     0.35590   0.27673   0.31851   0.00000  Uiso   1.00
H29    H     0.41552   0.33590   0.24892   0.00000  Uiso   1.00
C30    C     0.50750   0.40418   0.32349   0.00000  Uiso   1.00
H31    H     0.42339   0.40305   0.30959   0.00000  Uiso   1.00
C32    C     0.39053   0.42504   0.37232   0.00000  Uiso   1.00
H33    H     0.54810   0.40535   0.33990   0.00000  Uiso   1.00
C34    C     0.45648   0.39632   0.24626   0.00000  Uiso   1.00
C35    C     0.38197   0.44979   0.32923   0.00000  Uiso   1.00
C36    C     0.44455   0.38590   0.36479   0.00000  Uiso   1.00
H37    H     0.49241   0.39935   0.28120   0.00000  Uiso   1.00
C38    C     0.41013   0.44427   0.37830   0.00000  Uiso   1.00
H39    H     0.31300   0.29886   0.37267   0.00000  Uiso   1.00
O40    O     0.27093   0.38897   0.36202   0.00000  Uiso   1.00
C41    C     0.43624   0.38924   0.27066   0.00000  Uiso   1.00
C42    C     0.40590   0.46502   0.33232   0.00000  Uiso   1.00
H43    H     0.44786   0.39079   0.22592   0.00000  Uiso   1.00
C44    C     0.27862   0.41598   0.35502   0.00000  Uiso   1.00
H45    H     0.44522   0.25540   0.45957   0.00000  Uiso   1.00
C46    C     0.24122   0.41648   0.32317   0.00000  Uiso   1.00
C47    C     0.49123   0.39939   0.34942   0.00000  Uiso   1.00
H48    H     0.24307   0.27000   0.39587   0.00000  Uiso   1.00
H49    H     0.25356   0.34503   0.38699   0.00000  Uiso   1.00
C50    C     0.25967   0.32988   0.31696   0.00000  Uiso   1.00
C51    C     0.28914   0.32437   0.27744   0.00000  Uiso   1.00
H52    H     0.50083   0.36720   0.29771   0.00000  Uiso   1.00
H53    H     0.36316   0.30841   0.42676   0.00000  Uiso   1.00
H54    H     0.22666   0.24504   0.41963   0.00000  Uiso   1.00
C55    C     0.29760   0.46616   0.33237   0.00000  Uiso   1.00
H56    H     0.51661   0.44437   0.33736   0.00000  Uiso   1.00
C57    C     0.33498   0.28361   0.26492   0.00000  Uiso   1.00
H58    H     0.37531   0.31919   0.26666   0.00000  Uiso   1.00
C59    C     0.43958   0.30880   0.31006   0.00000  Uiso   1.00
H60    H     0.53114   0.27643   0.35802   0.00000  Uiso   1.00
O61    O     0.41695   0.28521   0.27152   0.00000  Uiso   1.00
H62    H     0.33491   0.36477   0.31764   0.00000  Uiso   1.00
C63    C     0.55029   0.27284   0.34885   0.00000  Uiso   1.00
C64    C     0.28427   0.47060   0.46716   0.00000  Uiso   1.00
H65    H     0.40634   0.41975   0.25700   0.00000  Uiso   1.00
O66    O     0.49280   0.39094   0.42519   0.00000  Uiso   1.00
C67    C     0.38131   0.28849   0.37652   0.00000  Uiso   1.00
H68    H     0.24324   0.22978   0.26817   0.00000  Uiso   1.00
C69    C     0.30782   0.38614   0.42983   0.00000  Uiso   1.00
C70    C     0.26509   0.33433   0.28921   0.00000  Uiso   1.00
C71    C     0.28075   0.37996   0.38763   0.00000  Uiso   1.00
C72    C     0.29817   0.35116   0.46985   0.00000  Uiso   1.00
H73    H     0.32361   0.39848   0.43899   0.00000  Uiso   1.00
N74    N     0.54637   0.24820   0.45489   0.00000  Uiso   1.00
C75    C     0.26527   0.42898   0.33338   0.00000  Uiso   1.00
C76    C     0.27241   0.29732   0.43834   0.00000  Uiso   1.00
C77    C     0.33450   0.30988   0.33663   0.00000  Uiso   1.00
O78    O     0.43495   0.38461   0.41441   0.00000  Uiso   1.00
C79    C     0.35657   0.33337   0.37525   0.00000  Uiso   1.00
C80    C     0.48167   0.39257   0.39837   0.00000  Uiso   1.00
C81    C     0.30942   0.31548   0.29458   0.00000  Uiso   1.00
H82    H     0.49134   0.44450   0.31142   0.00000  Uiso   1.00
C83    C     0.41727   0.26096   0.28788   0.00000  Uiso   1.00
H84    H     0.49995   0.29948   0.33166   0.00000  Uiso   1.00
H85    H     0.54257   0.31437   0.26264   0.00000  Uiso   1.00
C86    C     0.51127   0.43520   0.31723   0.00000  Uiso   1.00
H87    H     0.52298   0.40365   0.38156   0.00000  Uiso   1.00
H88    H     0.50197   0.26395   0.30083   0.00000  Uiso   1.00
C89    C     0.27647   0.34746   0.42466   0.00000  Uiso   1.00
N90    N     0.35676   0.45011   0.28183   0.00000  Uiso   1.00
C91    C     0.53456   0.29551   0.30284   0.00000  Uiso   1.00
C92    C     0.42071   0.44443   0.40630   0.00000  Uiso   1.00
H93    H     0.27941   0.32057   0.35684   0.00000  Uiso   1.00
C94    C     0.36791   0.35525   0.38968   0.00000  Uiso   1.00
H95    H     0.53804   0.37058   0.33563   0.00000  Uiso   1.00
H96    H     0.37217   0.30876   0.31240   0.00000  Uiso   1.00
C97    C     0.30083   0.39582   0.40279   0.00000  Uiso   1.00
H98    H     0.34328   0.33349   0.25126   0.00000  Uiso   1.00
H99    H     0.42427   0.38045   0.35728   0.00000  Uiso   1.00
C100   C     0.24667   0.27934   0.44051   0.00000  Uiso   1.00
C101   C     0.47357   0.38598   0.44564   0.00000  Uiso   1.00
N102   N     0.42919   0.44474   0.42958   0.00000  Uiso   1.00
H103   H     0.37795   0.26611   0.37575   0.00000  Uiso   1.00
C104   C     0.51348   0.31358   0.31924   0.00000  Uiso   1.00
H105   H     0.52585   0.44111   0.30068   0.00000  Uiso   1.00
H106   H     0.32779   0.31089   0.41931   0.00000  Uiso   1.00
H107   H     0.39163   0.29370   0.35564   0.00000  Uiso   1.00
C108   C     0.36882   0.38180   0.37818   0.00000  Uiso   1.00
C109   C     0.43653   0.35798   0.27910   0.00000  Uiso   1.00
C110   C     0.31273   0.46652   0.46776   0.00000  Uiso   1.00
H111   H     0.28966   0.29098   0.45148   0.00000  Uiso   1.00
N112   N     0.44662   0.23963   0.37932   0.00000  Uiso   1.00
C113   C     0.42536   0.33361   0.26876   0.00000  Uiso   1.00
C114   C     0.45050   0.35757   0.30519   0.00000  Uiso   1.00
C115   C     0.33269   0.29425   0.36384   0.00000  Uiso   1.00
C116   C     0.49184   0.38861   0.30168   0.00000  Uiso   1.00
H117   H     0.29447   0.32345   0.25581   0.00000  Uiso   1.00
H118   H     0.26338   0.24797   0.41326   0.00000  Uiso   1.00
H119   H     0.32030   0.28726   0.24777   0.00000  Uiso   1.00
C120   C     0.45328   0.38737   0.39294   0.00000  Uiso   1.00
C121   C     0.44060   0.40347   0.29700   0.00000  Uiso   1.00
H122   H     0.35456   0.27450   0.25909   0.00000  Uiso   1.00
H123   H     0.47677   0.25773   0.44298   0.00000  Uiso   1.00
C124   C     0.51893   0.27369   0.28797   0.00000  Uiso   1.00
O125   O     0.38423   0.40267   0.39001   0.00000  Uiso   1.00
C126   C     0.30937   0.45490   0.35551   0.00000  Uiso   1.00
H127   H     0.37474   0.35554   0.41152   0.00000  Uiso   1.00
H128   H     0.28038   0.29871   0.41704   0.00000  Uiso   1.00
C129   C     0.35611   0.38535   0.35215   0.00000  Uiso   1.00
C130   C     0.29597   0.36233   0.44026   0.00000  Uiso   1.00
C131   C     0.50023   0.39887   0.37692   0.00000  Uiso   1.00
H132   H     0.35386   0.34579   0.28505   0.00000  Uiso   1.00
C133   C     0.34443   0.36199   0.33813   0.00000  Uiso   1.00
C134   C     0.34585   0.33590   0.34892   0.00000  Uiso   1.00
C135   C     0.42955   0.25977   0.31441   0.00000  Uiso   1.00
C136   C     0.36856   0.44943   0.30305   0.00000  Uiso   1.00
H137   H     0.54994   0.38861   0.30683   0.00000  Uiso   1.00
C138   C     0.35471   0.30337   0.38370   0.00000  Uiso   1.00
H139   H     0.46201   0.33262   0.34070   0.00000  Uiso   1.00
H140   H     0.34734   0.27671   0.42286   0.00000  Uiso   1.00
H141   H     0.53045   0.25486   0.28156   0.00000  Uiso   1.00
C142   C     0.42673   0.23645   0.33124   0.00000  Uiso   1.00
C143   C     0.40257   0.23863   0.27812   0.00000  Uiso   1.00
C144   C     0.35266   0.29788   0.31333   0.00000  Uiso   1.00
C145   C     0.29996   0.42931   0.36814   0.00000  Uiso   1.00
H146   H     0.26382   0.25084   0.46817   0.00000  Uiso   1.00
C147   C     0.40808   0.39706   0.26018   0.00000  Uiso   1.00
C148   C     0.44574   0.38484   0.44043   0.00000  Uiso   1.00
H149   H     0.26042   0.22564   0.30037   0.00000  Uiso   1.00
N150   N     0.37522   0.38470   0.45373   0.00000  Uiso   1.00
H151   H     0.39348   0.39026   0.27479   0.00000  Uiso   1.00
H152   H     0.32584   0.26546   0.27575   0.00000  Uiso   1.00
H153   H     0.39696   0.29449   0.39279   0.00000  Uiso   1.00
C154   C     0.53715   0.39130   0.32677   0.00000  Uiso   1.00
C155   C     0.23181   0.32547   0.43999   0.00000  Uiso   1.00
C156   C     0.55272   0.31121   0.28302   0.00000  Uiso   1.00
C157   C     0.42765   0.38292   0.46249   0.00000  Uiso   1.00
C158   C     0.39895   0.38400   0.45779   0.00000  Uiso   1.00
H159   H     0.52141   0.32805   0.33516   0.00000  Uiso   1.00
C160   C     0.43774   0.23780   0.35765   0.00000  Uiso   1.00
H161   H     0.40118   0.38890   0.23957   0.00000  Uiso   1.00
H162   H     0.46002   0.41803   0.24588   0.00000  Uiso   1.00
C163   C     0.41856   0.46408   0.35874   0.00000  Uiso   1.00
C164   C     0.39242   0.23838   0.25018   0.00000  Uiso   1.00
H165   H     0.27350   0.45223   0.41963   0.00000  Uiso   1.00
N166   N     0.54365   0.39456   0.23879   0.00000  Uiso   1.00
C167   C     0.46683   0.25049   0.46196   0.00000  Uiso   1.00
C168   C     0.27510   0.45316   0.32153   0.00000  Uiso   1.00
H169   H     0.23543   0.45200   0.44231   0.00000  Uiso   1.00
H170   H     0.41636   0.22587   0.43945   0.00000  Uiso   1.00
C171   C     0.55371   0.28219   0.32268   0.00000  Uiso   1.00
H172   H     0.22733   0.25216   0.46772   0.00000  Uiso   1.00
H173   H     0.47568   0.30654   0.46976   0.00000  Uiso   1.00
O174   O     0.25965   0.46513   0.29983   0.00000  Uiso   1.00
H175   H     0.50871   0.28939   0.46613   0.00000  Uiso   1.00
H176   H     0.30871   0.22490   0.27641   0.00000  Uiso   1.00
C177   C     0.23812   0.47118   0.45424   0.00000  Uiso   1.00
C178   C     0.32881   0.47237   0.36812   0.00000  Uiso   1.00
C179   C     0.26886   0.33895   0.47283   0.00000  Uiso   1.00
H180   H     0.55603   0.33213   0.29050   0.00000  Uiso   1.00
H181   H     0.32379   0.47281   0.44795   0.00000  Uiso   1.00
H182   H     0.29116   0.22382   0.24235   0.00000  Uiso   1.00
C183   C     0.48291   0.38363   0.47234   0.00000  Uiso   1.00
O184   O     0.51078   0.45256   0.22342   0.00000  Uiso   1.00
H185   H     0.25383   0.35649   0.47431   0.00000  Uiso   1.00
C186   C     0.51819   0.39893   0.70350   0.00000  Uiso   1.00
H187   H     0.25027   0.45650   0.67260   0.00000  Uiso   1.00
H188   H     0.51856   0.34413   0.59988   0.00000  Uiso   1.00
C189   C     0.31483   0.46974   0.61246   0.00000  Uiso   1.00
H190   H     0.55349   0.44989   0.59987   0.00000  Uiso   1.00
C191   C     0.30114   0.27135   0.69996   0.00000  Uiso   1.00
C192   C     0.35860   0.42478   0.56171   0.00000  Uiso   1.00
H193   H     0.40071   0.28858   0.58952   0.00000  Uiso   1.00
C194   C     0.42305   0.43149   0.59985   0.00000  Uiso   1.00
C195   C     0.42725   0.36420   0.53527   0.00000  Uiso   1.00
C196   C     0.46343   0.43337   0.63007   0.00000  Uiso   1.00
C197   C     0.30157   0.31969   0.68924   0.00000  Uiso   1.00
N198   N     0.25413   0.38249   0.62619   0.00000  Uiso   1.00
C199   C     0.32964   0.36862   0.69019   0.00000  Uiso   1.00
H200   H     0.29682   0.46770   0.70584   0.00000  Uiso   1.00
C201   C     0.26826   0.46223   0.48974   0.00000  Uiso   1.00
C202   C     0.47216   0.25163   0.59463   0.00000  Uiso   1.00
H203   H     0.25389   0.23934   0.63288   0.00000  Uiso   1.00
C204   C     0.38622   0.42963   0.56982   0.00000  Uiso   1.00
N205   N     0.23896   0.30749   0.52615   0.00000  Uiso   1.00
C206   C     0.35680   0.23461   0.70579   0.00000  Uiso   1.00
C207   C     0.29748   0.22700   0.67407   0.00000  Uiso   1.00
C208   C     0.30129   0.37615   0.49150   0.00000  Uiso   1.00
C209   C     0.47118   0.37932   0.71348   0.00000  Uiso   1.00
H210   H     0.51898   0.41621   0.63619   0.00000  Uiso   1.00
C211   C     0.53756   0.23026   0.52837   0.00000  Uiso   1.00
C212   C     0.40937   0.35265   0.55538   0.00000  Uiso   1.00
C213   C     0.45476   0.26800   0.51111   0.00000  Uiso   1.00
H214   H     0.28486   0.39161   0.49046   0.00000  Uiso   1.00
N215   N     0.32925   0.40087   0.59870   0.00000  Uiso   1.00
O216   O     0.39605   0.42353   0.59582   0.00000  Uiso   1.00
C217   C     0.34278   0.39380   0.69043   0.00000  Uiso   1.00
H218   H     0.51591   0.26996   0.53157   0.00000  Uiso   1.00
H219   H     0.48199   0.45223   0.56530   0.00000  Uiso   1.00
C220   C     0.32244   0.33347   0.47783   0.00000  Uiso   1.00
C221   C     0.39247   0.44862   0.52283   0.00000  Uiso   1.00
H222   H     0.45028   0.38119   0.70608   0.00000  Uiso   1.00
C223   C     0.45573   0.36534   0.53988   0.00000  Uiso   1.00
C224   C     0.34193   0.45720   0.65128   0.00000  Uiso   1.00
H225   H     0.38767   0.34908   0.54705   0.00000  Uiso   1.00
C226   C     0.36796   0.39721   0.70727   0.00000  Uiso   1.00
C227   C     0.30471   0.36667   0.67601   0.00000  Uiso   1.00
C228   C     0.47701   0.43186   0.70440   0.00000  Uiso   1.00
H229   H     0.53263   0.27170   0.62516   0.00000  Uiso   1.00
H230   H     0.35561   0.24024   0.68356   0.00000  Uiso   1.00
H231   H     0.48434   0.36287   0.62225   0.00000  Uiso   1.00
C232   C     0.36305   0.44502   0.51741   0.00000  Uiso   1.00
C233   C     0.33342   0.41644   0.67556   0.00000  Uiso   1.00
H234   H     0.39615   0.37258   0.61883   0.00000  Uiso   1.00
C235   C     0.48168   0.43000   0.65512   0.00000  Uiso   1.00
C236   C     0.29575   0.38703   0.65842   0.00000  Uiso   1.00
H237   H     0.48781   0.35315   0.56862   0.00000  Uiso   1.00
H238   H     0.44760   0.24893   0.52110   0.00000  Uiso   1.00
O239   O     0.31857   0.43121   0.53427   0.00000  Uiso   1.00
H240   H     0.49732   0.30494   0.49956   0.00000  Uiso   1.00
C241   C     0.49522   0.29775   0.61978   0.00000  Uiso   1.00
H242   H     0.37012   0.25483   0.59131   0.00000  Uiso   1.00
C243   C     0.52569   0.34177   0.62298   0.00000  Uiso   1.00
H244   H     0.42328   0.42009   0.64453   0.00000  Uiso   1.00
C245   C     0.43575   0.42739   0.62597   0.00000  Uiso   1.00
H246   H     0.33566   0.23174   0.61848   0.00000  Uiso   1.00
H247   H     0.26686   0.29257   0.67831   0.00000  Uiso   1.00
H248   H     0.52751   0.42527   0.58980   0.00000  Uiso   1.00
H249   H     0.54637   0.33185   0.62519   0.00000  Uiso   1.00
C250   C     0.46914   0.44640   0.58289   0.00000  Uiso   1.00
H251   H     0.29994   0.36776   0.51266   0.00000  Uiso   1.00
C252   C     0.48620   0.40191   0.69689   0.00000  Uiso   1.00
C253   C     0.47772   0.34361   0.63106   0.00000  Uiso   1.00
H254   H     0.52779   0.46164   0.58091   0.00000  Uiso   1.00
C255   C     0.47970   0.40108   0.66643   0.00000  Uiso   1.00
H256   H     0.52497   0.37582   0.70053   0.00000  Uiso   1.00
C257   C     0.44117   0.43871   0.57886   0.00000  Uiso   1.00
N258   N     0.53494   0.39261   0.48393   0.00000  Uiso   1.00
C259   C     0.32885   0.32076   0.70239   0.00000  Uiso   1.00
C260   C     0.50481   0.31775   0.66562   0.00000  Uiso   1.00
C261   C     0.45748   0.27575   0.59631   0.00000  Uiso   1.00
C262   C     0.46599   0.35403   0.56432   0.00000  Uiso   1.00
O263   O     0.28806   0.34290   0.67759   0.00000  Uiso   1.00
C264   C     0.40321   0.44129   0.54847   0.00000  Uiso   1.00
H265   H     0.24524   0.27864   0.48563   0.00000  Uiso   1.00
H266   H     0.47816   0.35782   0.71073   0.00000  Uiso   1.00
H267   H     0.45977   0.39239   0.66432   0.00000  Uiso   1.00
H268   H     0.39297   0.23848   0.61768   0.00000  Uiso   1.00
C269   C     0.38611   0.35356   0.61888   0.00000  Uiso   1.00
H270   H     0.42511   0.33562   0.64343   0.00000  Uiso   1.00
H271   H     0.52392   0.30815   0.67019   0.00000  Uiso   1.00
O272   O     0.41611   0.37530   0.51050   0.00000  Uiso   1.00
C273   C     0.38722   0.30398   0.59886   0.00000  Uiso   1.00
C274   C     0.51209   0.38826   0.47971   0.00000  Uiso   1.00
C275   C     0.30889   0.41281   0.65874   0.00000  Uiso   1.00
C276   C     0.50270   0.32501   0.63550   0.00000  Uiso   1.00
H277   H     0.37267   0.30708   0.58262   0.00000  Uiso   1.00
H278   H     0.30080   0.24319   0.65758   0.00000  Uiso   1.00
O279   O     0.34640   0.44228   0.67510   0.00000  Uiso   1.00
H280   H     0.32098   0.32743   0.50054   0.00000  Uiso   1.00
O281   O     0.29909   0.43201   0.64039   0.00000  Uiso   1.00
H282   H     0.53153   0.41229   0.69163   0.00000  Uiso   1.00
C283   C     0.28898   0.29441   0.68724   0.00000  Uiso   1.00
C284   C     0.30894   0.44434   0.51107   0.00000  Uiso   1.00
C285   C     0.45590   0.32796   0.61099   0.00000  Uiso   1.00
O286   O     0.43165   0.44502   0.55221   0.00000  Uiso   1.00
C287   C     0.34230   0.41178   0.58226   0.00000  Uiso   1.00
C288   C     0.40408   0.33101   0.60494   0.00000  Uiso   1.00
C289   C     0.42009   0.34381   0.58062   0.00000  Uiso   1.00
C290   C     0.46923   0.29965   0.60690   0.00000  Uiso   1.00
H291   H     0.42300   0.29983   0.63212   0.00000  Uiso   1.00
C292   C     0.49946   0.25061   0.60576   0.00000  Uiso   1.00
C293   C     0.47949   0.44524   0.60919   0.00000  Uiso   1.00
C294   C     0.32674   0.27351   0.71369   0.00000  Uiso   1.00
C295   C     0.51829   0.24965   0.52057   0.00000  Uiso   1.00
H296   H     0.37685   0.24029   0.71377   0.00000  Uiso   1.00
N297   N     0.38804   0.39888   0.71959   0.00000  Uiso   1.00
H298   H     0.48940   0.30391   0.67104   0.00000  Uiso   1.00
H299   H     0.46384   0.28086   0.52894   0.00000  Uiso   1.00
H300   H     0.52760   0.36098   0.63501   0.00000  Uiso   1.00
C301   C     0.41035   0.46054   0.50320   0.00000  Uiso   1.00
C302   C     0.50008   0.24539   0.49933   0.00000  Uiso   1.00
H303   H     0.37971   0.34718   0.64010   0.00000  Uiso   1.00
H304   H     0.36616   0.35714   0.60679   0.00000  Uiso   1.00
C305   C     0.38296   0.23698   0.59785   0.00000  Uiso   1.00
C306   C     0.46386   0.37931   0.49395   0.00000  Uiso   1.00
C307   C     0.49055   0.29278   0.48044   0.00000  Uiso   1.00
C308   C     0.34691   0.43405   0.53726   0.00000  Uiso   1.00
H309   H     0.37857   0.29268   0.61609   0.00000  Uiso   1.00
C310   C     0.43520   0.37984   0.48963   0.00000  Uiso   1.00
O311   O     0.47436   0.37536   0.51998   0.00000  Uiso   1.00
C312   C     0.42652   0.32215   0.62457   0.00000  Uiso   1.00
C313   C     0.44799   0.34323   0.58405   0.00000  Uiso   1.00
C314   C     0.28078   0.44562   0.50967   0.00000  Uiso   1.00
H315   H     0.46621   0.34755   0.65001   0.00000  Uiso   1.00
C316   C     0.34180   0.29768   0.71400   0.00000  Uiso   1.00
H317   H     0.50058   0.33596   0.67976   0.00000  Uiso   1.00
C318   C     0.51134   0.43609   0.64488   0.00000  Uiso   1.00
C319   C     0.47633   0.26504   0.48744   0.00000  Uiso   1.00
H320   H     0.40046   0.23714   0.58289   0.00000  Uiso   1.00
C321   C     0.51053   0.27382   0.61791   0.00000  Uiso   1.00
C322   C     0.27245   0.38429   0.64034   0.00000  Uiso   1.00
C323   C     0.25966   0.23699   0.70620   0.00000  Uiso   1.00
H324   H     0.32080   0.38779   0.48792   0.00000  Uiso   1.00
C325   C     0.28960   0.24117   0.70122   0.00000  Uiso   1.00
H326   H     0.49486   0.38683   0.65483   0.00000  Uiso   1.00
C327   C     0.31898   0.45194   0.63538   0.00000  Uiso   1.00
H328   H     0.43652   0.27669   0.50172   0.00000  Uiso   1.00
C329   C     0.47202   0.44621   0.68056   0.00000  Uiso   1.00
C330   C     0.22680   0.45855   0.67569   0.00000  Uiso   1.00
H331   H     0.43849   0.27720   0.58580   0.00000  Uiso   1.00
C332   C     0.23820   0.46598   0.48543   0.00000  Uiso   1.00
O333   O     0.34091   0.34595   0.70512   0.00000  Uiso   1.00
H334   H     0.26744   0.43732   0.52554   0.00000  Uiso   1.00
O335   O     0.35366   0.45336   0.49110   0.00000  Uiso   1.00
H336   H     0.24260   0.40410   0.48128   0.00000  Uiso   1.00
C337   C     0.50857   0.45459   0.61843   0.00000  Uiso   1.00
C338   C     0.32567   0.45661   0.49057   0.00000  Uiso   1.00
O339   O     0.51473   0.22699   0.60521   0.00000  Uiso   1.00
H340   H     0.26823   0.32548   0.49089   0.00000  Uiso   1.00
C341   C     0.53033   0.44630   0.59719   0.00000  Uiso   1.00
O342   O     0.45993   0.23036   0.58080   0.00000  Uiso   1.00
H343   H     0.29678   0.46691   0.59848   0.00000  Uiso   1.00
H344   H     0.52403   0.44514   0.66122   0.00000  Uiso   1.00
N345   N     0.42389   0.47010   0.48636   0.00000  Uiso   1.00
H346   H     0.34006   0.34703   0.47398   0.00000  Uiso   1.00
C347   C     0.22375   0.41276   0.48879   0.00000  Uiso   1.00
H348   H     0.36305   0.29655   0.72266   0.00000  Uiso   1.00
H349   H     0.38342   0.38757   0.82130   0.00000  Uiso   1.00
H350   H     0.32383   0.43864   0.87456   0.00000  Uiso   1.00
H351   H     0.47151   0.25195   0.90250   0.00000  Uiso   1.00
C352   C     0.23088   0.39876   0.74447   0.00000  Uiso   1.00
C353   C     0.32245   0.46096   0.87128   0.00000  Uiso   1.00
C354   C     0.34247   0.30241   0.91491   0.00000  Uiso   1.00
C355   C     0.29989   0.47241   0.88476   0.00000  Uiso   1.00
N356   N     0.24809   0.39662   0.92050   0.00000  Uiso   1.00
H357   H     0.31441   0.24435   0.80905   0.00000  Uiso   1.00
C358   C     0.38978   0.27795   0.89550   0.00000  Uiso   1.00
O359   O     0.24268   0.25379   0.91760   0.00000  Uiso   1.00
C360   C     0.40293   0.40395   0.87306   0.00000  Uiso   1.00
C361   C     0.39492   0.41160   0.95636   0.00000  Uiso   1.00
C362   C     0.54643   0.29251   0.82018   0.00000  Uiso   1.00
C363   C     0.39194   0.43275   0.82654   0.00000  Uiso   1.00
C364   C     0.30930   0.22980   0.72420   0.00000  Uiso   1.00
C365   C     0.38062   0.27186   0.92096   0.00000  Uiso   1.00
O366   O     0.40712   0.38244   0.91861   0.00000  Uiso   1.00
H367   H     0.36442   0.26411   0.75627   0.00000  Uiso   1.00
C368   C     0.27051   0.42878   0.74557   0.00000  Uiso   1.00
H369   H     0.46176   0.27995   0.92398   0.00000  Uiso   1.00
H370   H     0.40343   0.40555   0.79474   0.00000  Uiso   1.00
C371   C     0.47697   0.26337   0.92072   0.00000  Uiso   1.00
C372   C     0.25425   0.27632   0.96101   0.00000  Uiso   1.00
C373   C     0.49489   0.35576   0.88783   0.00000  Uiso   1.00
H374   H     0.53319   0.24600   0.84467   0.00000  Uiso   1.00
H375   H     0.42906   0.45978   0.83537   0.00000  Uiso   1.00
C376   C     0.52881   0.23285   0.94861   0.00000  Uiso   1.00
H377   H     0.35605   0.33543   0.82656   0.00000  Uiso   1.00
H378   H     0.42241   0.32842   0.89302   0.00000  Uiso   1.00
C379   C     0.39426   0.42753   0.85679   0.00000  Uiso   1.00
H380   H     0.35545   0.22938   0.76361   0.00000  Uiso   1.00
C381   C     0.45715   0.33414   0.86867   0.00000  Uiso   1.00
C382   C     0.41490   0.31512   0.85016   0.00000  Uiso   1.00
N383   N     0.48889   0.37139   0.95826   0.00000  Uiso   1.00
C384   C     0.38351   0.45036   0.86999   0.00000  Uiso   1.00
C385   C     0.52681   0.24808   0.92414   0.00000  Uiso   1.00
H386   H     0.40941   0.38539   0.86124   0.00000  Uiso   1.00
C387   C     0.38481   0.45212   0.89770   0.00000  Uiso   1.00
C388   C     0.46769   0.47023   0.73362   0.00000  Uiso   1.00
H389   H     0.51826   0.30318   0.89107   0.00000  Uiso   1.00
H390   H     0.36608   0.40803   0.79663   0.00000  Uiso   1.00
C391   C     0.26362   0.35690   0.76651   0.00000  Uiso   1.00
O392   O     0.47014   0.34359   0.89252   0.00000  Uiso   1.00
C393   C     0.49821   0.36995   0.93619   0.00000  Uiso   1.00
N394   N     0.28076   0.31350   0.93328   0.00000  Uiso   1.00
C395   C     0.54653   0.27941   0.73852   0.00000  Uiso   1.00
H396   H     0.41124   0.32667   0.76977   0.00000  Uiso   1.00
C397   C     0.40329   0.38689   0.94656   0.00000  Uiso   1.00
O398   O     0.28838   0.29051   0.79334   0.00000  Uiso   1.00
H399   H     0.34959   0.44535   0.82260   0.00000  Uiso   1.00
H400   H     0.52691   0.29943   0.82829   0.00000  Uiso   1.00
H401   H     0.24817   0.25611   0.74606   0.00000  Uiso   1.00
C402   C     0.24186   0.30722   0.78050   0.00000  Uiso   1.00
H403   H     0.32500   0.36683   0.85829   0.00000  Uiso   1.00
C404   C     0.30948   0.34362   0.77878   0.00000  Uiso   1.00
H405   H     0.46463   0.32357   0.79925   0.00000  Uiso   1.00
C406   C     0.54526   0.24319   0.90411   0.00000  Uiso   1.00
C407   C     0.39435   0.43038   0.91338   0.00000  Uiso   1.00
C408   C     0.54528   0.38383   0.87792   0.00000  Uiso   1.00
H409   H     0.54939   0.44822   0.73268   0.00000  Uiso   1.00
C410   C     0.36964   0.45406   0.82386   0.00000  Uiso   1.00
C411   C     0.42088   0.44422   0.82001   0.00000  Uiso   1.00
H412   H     0.31015   0.32725   0.83124   0.00000  Uiso   1.00
N413   N     0.53217   0.27192   0.75603   0.00000  Uiso   1.00
C414   C     0.39605   0.31789   0.78406   0.00000  Uiso   1.00
C415   C     0.54412   0.26784   0.88387   0.00000  Uiso   1.00
C416   C     0.23631   0.35236   0.76087   0.00000  Uiso   1.00
C417   C     0.24701   0.26130   0.79808   0.00000  Uiso   1.00
C418   C     0.45400   0.32337   0.81968   0.00000  Uiso   1.00
C419   C     0.26138   0.46665   0.91423   0.00000  Uiso   1.00
C420   C     0.53170   0.37095   0.85651   0.00000  Uiso   1.00
C421   C     0.23409   0.23571   0.80748   0.00000  Uiso   1.00
H422   H     0.38348   0.26830   0.83279   0.00000  Uiso   1.00
C423   C     0.50682   0.35786   0.86075   0.00000  Uiso   1.00
C424   C     0.28168   0.33732   0.77622   0.00000  Uiso   1.00
C425   C     0.24576   0.41988   0.92383   0.00000  Uiso   1.00
C426   C     0.54259   0.37084   0.83054   0.00000  Uiso   1.00
H427   H     0.43436   0.42529   0.82169   0.00000  Uiso   1.00
C428   C     0.33923   0.32720   0.86598   0.00000  Uiso   1.00
C429   C     0.34643   0.24905   0.75425   0.00000  Uiso   1.00
H430   H     0.50215   0.27797   0.87414   0.00000  Uiso   1.00
H431   H     0.55099   0.46422   0.76502   0.00000  Uiso   1.00
C432   C     0.40096   0.40587   0.90225   0.00000  Uiso   1.00
N433   N     0.33305   0.34792   0.78218   0.00000  Uiso   1.00
C434   C     0.53417   0.38206   0.90527   0.00000  Uiso   1.00
C435   C     0.37553   0.29575   0.87935   0.00000  Uiso   1.00
O436   O     0.22805   0.28205   0.78838   0.00000  Uiso   1.00
H437   H     0.52299   0.40366   0.72515   0.00000  Uiso   1.00
C438   C     0.35114   0.30767   0.88856   0.00000  Uiso   1.00
O439   O     0.39198   0.43456   0.94083   0.00000  Uiso   1.00
O440   O     0.39555   0.25238   0.93753   0.00000  Uiso   1.00
H441   H     0.41186   0.26160   0.94615   0.00000  Uiso   1.00
C442   C     0.42192   0.27528   0.79461   0.00000  Uiso   1.00
O443   O     0.27638   0.38243   0.75911   0.00000  Uiso   1.00
C444   C     0.37113   0.47022   0.84994   0.00000  Uiso   1.00
C445   C     0.38542   0.40684   0.80914   0.00000  Uiso   1.00
H446   H     0.43467   0.26433   0.81106   0.00000  Uiso   1.00
C447   C     0.46887   0.33388   0.84290   0.00000  Uiso   1.00
C448   C     0.31561   0.31411   0.85003   0.00000  Uiso   1.00
C449   C     0.42681   0.31265   0.82392   0.00000  Uiso   1.00
H450   H     0.32534   0.31398   0.92379   0.00000  Uiso   1.00
C451   C     0.24366   0.44991   0.92687   0.00000  Uiso   1.00
H452   H     0.47497   0.24969   0.93866   0.00000  Uiso   1.00
C453   C     0.41039   0.33705   0.95051   0.00000  Uiso   1.00
H454   H     0.42302   0.45170   0.79877   0.00000  Uiso   1.00
C455   C     0.40355   0.36217   0.96299   0.00000  Uiso   1.00
H456   H     0.29126   0.43125   0.75290   0.00000  Uiso   1.00
H457   H     0.51372   0.23746   0.96489   0.00000  Uiso   1.00
C458   C     0.22436   0.32666   0.76876   0.00000  Uiso   1.00
H459   H     0.40897   0.26969   0.88722   0.00000  Uiso   1.00
C460   C     0.32991   0.35540   0.87717   0.00000  Uiso   1.00
C461   C     0.50860   0.36907   0.90906   0.00000  Uiso   1.00
C462   C     0.42991   0.32502   0.87189   0.00000  Uiso   1.00
H463   H     0.37539   0.35269   0.85463   0.00000  Uiso   1.00
H464   H     0.32187   0.29221   0.84176   0.00000  Uiso   1.00
H465   H     0.49738   0.31340   0.93536   0.00000  Uiso   1.00
N466   N     0.41573   0.31522   0.94242   0.00000  Uiso   1.00
C467   C     0.36510   0.33361   0.84760   0.00000  Uiso   1.00
C468   C     0.50803   0.27230   0.91906   0.00000  Uiso   1.00
C469   C     0.27536   0.26528   0.79995   0.00000  Uiso   1.00
H470   H     0.43658   0.28255   0.77879   0.00000  Uiso   1.00
C471   C     0.40548   0.29834   0.80592   0.00000  Uiso   1.00
C472   C     0.26936   0.29741   0.94618   0.00000  Uiso   1.00
C473   C     0.38425   0.30816   0.85084   0.00000  Uiso   1.00
C474   C     0.38243   0.29013   0.82528   0.00000  Uiso   1.00
C475   C     0.23981   0.25564   0.94738   0.00000  Uiso   1.00
O476   O     0.49473   0.34468   0.83752   0.00000  Uiso   1.00
H477   H     0.36232   0.28827   0.81489   0.00000  Uiso   1.00
H478   H     0.38555   0.33828   0.79167   0.00000  Uiso   1.00
H479   H     0.31158   0.35478   0.89061   0.00000  Uiso   1.00
C480   C     0.51642   0.28165   0.89028   0.00000  Uiso   1.00
H481   H     0.40705   0.25986   0.78418   0.00000  Uiso   1.00
H482   H     0.34672   0.36705   0.88642   0.00000  Uiso   1.00
C483   C     0.25921   0.40323   0.75122   0.00000  Uiso   1.00
C484   C     0.35549   0.28298   0.93119   0.00000  Uiso   1.00
H485   H     0.54474   0.27624   0.80280   0.00000  Uiso   1.00
O486   O     0.28140   0.45472   0.89656   0.00000  Uiso   1.00
C487   C     0.27160   0.31231   0.78506   0.00000  Uiso   1.00
H488   H     0.37351   0.46690   0.80509   0.00000  Uiso   1.00
C489   C     0.51261   0.29639   0.94026   0.00000  Uiso   1.00
C490   C     0.25518   0.45060   0.73461   0.00000  Uiso   1.00
H491   H     0.37908   0.30850   0.77336   0.00000  Uiso   1.00
C492   C     0.55182   0.25780   0.85517   0.00000  Uiso   1.00
H493   H     0.48263   0.43167   0.74880   0.00000  Uiso   1.00
C494   C     0.55406   0.44484   0.75478   0.00000  Uiso   1.00
H495   H     0.29814   0.31413   0.86238   0.00000  Uiso   1.00
C496   C     0.33483   0.24576   0.72477   0.00000  Uiso   1.00
H497   H     0.53411   0.30455   0.93970   0.00000  Uiso   1.00
H498   H     0.53953   0.42945   0.76233   0.00000  Uiso   1.00
H499   H     0.47265   0.38571   0.73375   0.00000  Uiso   1.00
H500   H     0.53154   0.46398   0.95527   0.00000  Uiso   1.00
H501   H     0.50672   0.29256   0.96211   0.00000  Uiso   1.00
H502   H     0.32954   0.25765   0.76654   0.00000  Uiso   1.00
C503   C     0.29179   0.24324   0.80933   0.00000  Uiso   1.00
H504   H     0.32195   0.45814   0.74412   0.00000  Uiso   1.00
H505   H     0.33650   0.26479   0.96465   0.00000  Uiso   1.00
C506   C     0.23153   0.23193   0.90518   0.00000  Uiso   1.00
H507   H     0.25597   0.24079   0.86751   0.00000  Uiso   1.00
O508   O     0.54875   0.39173   0.92796   0.00000  Uiso   1.00
C509   C     0.22351   0.23622   0.96035   0.00000  Uiso   1.00
H510   H     0.37683   0.47078   0.90909   0.00000  Uiso   1.00
H511   H     0.39719   0.23099   0.86402   0.00000  Uiso   1.00
C512   C     0.47449   0.44216   0.73066   0.00000  Uiso   1.00
N513   N     0.55252   0.37151   0.80869   0.00000  Uiso   1.00
O514   O     0.34938   0.28026   0.95934   0.00000  Uiso   1.00
C515   C     0.24139   0.22494   0.87958   0.00000  Uiso   1.00
H516   H     0.29714   0.23025   0.74333   0.00000  Uiso   1.00
C517   C     0.24203   0.24535   0.72677   0.00000  Uiso   1.00
C518   C     0.22880   0.44399   0.72426   0.00000  Uiso   1.00
H519   H     0.42373   0.22642   0.83942   0.00000  Uiso   1.00
H520   H     0.55530   0.31039   0.80824   0.00000  Uiso   1.00
C521   C     0.46663   0.26987   1.06934   0.00000  Uiso   1.00
C522   C     0.38696   0.41229   0.98471   0.00000  Uiso   1.00
C523   C     0.28422   0.45761   1.03507   0.00000  Uiso   1.00
H524   H     0.29029   0.45597   1.11364   0.00000  Uiso   1.00
H525   H     0.34981   0.36143   1.13425   0.00000  Uiso   1.00
C526   C     0.36798   0.28168   1.17356   0.00000  Uiso   1.00
N527   N     0.28596   0.36491   1.21029   0.00000  Uiso   1.00
H528   H     0.29020   0.32442   1.07809   0.00000  Uiso   1.00
H529   H     0.28366   0.42802   1.06609   0.00000  Uiso   1.00
C530   C     0.27046   0.29650   1.20263   0.00000  Uiso   1.00
H531   H     0.24084   0.45111   1.04446   0.00000  Uiso   1.00
H532   H     0.43268   0.35016   1.10045   0.00000  Uiso   1.00
O533   O     0.27298   0.29368   1.00202   0.00000  Uiso   1.00
C534   C     0.53931   0.38250   1.11486   0.00000  Uiso   1.00
C535   C     0.45176   0.31137   1.13758   0.00000  Uiso   1.00
O536   O     0.41487   0.44081   1.04755   0.00000  Uiso   1.00
H537   H     0.41243   0.36951   1.12436   0.00000  Uiso   1.00
C538   C     0.43095   0.23457   1.07402   0.00000  Uiso   1.00
C539   C     0.40775   0.32005   1.15613   0.00000  Uiso   1.00
H540   H     0.27267   0.42149   1.01068   0.00000  Uiso   1.00
C541   C     0.51782   0.33421   1.04543   0.00000  Uiso   1.00
C542   C     0.32789   0.23403   1.11705   0.00000  Uiso   1.00
C543   C     0.53438   0.40380   1.16744   0.00000  Uiso   1.00
C544   C     0.30510   0.29511   1.04030   0.00000  Uiso   1.00
H545   H     0.31372   0.31402   1.03048   0.00000  Uiso   1.00
C546   C     0.52756   0.41566   1.19370   0.00000  Uiso   1.00
C547   C     0.41037   0.29153   1.14887   0.00000  Uiso   1.00
C548   C     0.39499   0.44805   1.06728   0.00000  Uiso   1.00
O549   O     0.37655   0.39169   1.02840   0.00000  Uiso   1.00
C550   C     0.54694   0.33006   1.05872   0.00000  Uiso   1.00
C551   C     0.53574   0.40281   1.21774   0.00000  Uiso   1.00
H552   H     0.37186   0.26283   1.07109   0.00000  Uiso   1.00
C553   C     0.23904   0.36586   1.01126   0.00000  Uiso   1.00
C554   C     0.38514   0.32890   1.17162   0.00000  Uiso   1.00
H555   H     0.34724   0.30677   1.12416   0.00000  Uiso   1.00
H556   H     0.42026   0.24513   1.05767   0.00000  Uiso   1.00
N557   N     0.35940   0.45356   1.00068   0.00000  Uiso   1.00
C558   C     0.34677   0.45216   1.08009   0.00000  Uiso   1.00
H559   H     0.46394   0.36194   1.15345   0.00000  Uiso   1.00
H560   H     0.37936   0.29667   1.03446   0.00000  Uiso   1.00
C561   C     0.29899   0.25719   1.18978   0.00000  Uiso   1.00
C562   C     0.25600   0.46688   1.04267   0.00000  Uiso   1.00
C563   C     0.51656   0.44249   1.19596   0.00000  Uiso   1.00
C564   C     0.23599   0.40819   1.13556   0.00000  Uiso   1.00
H565   H     0.39235   0.25137   1.15337   0.00000  Uiso   1.00
H566   H     0.33084   0.38204   1.11491   0.00000  Uiso   1.00
C567   C     0.32435   0.33878   1.10220   0.00000  Uiso   1.00
C568   C     0.27335   0.26842   1.19594   0.00000  Uiso   1.00
C569   C     0.47060   0.25295   1.16309   0.00000  Uiso   1.00
C570   C     0.33409   0.24271   1.08687   0.00000  Uiso   1.00
C571   C     0.36474   0.30956   1.17979   0.00000  Uiso   1.00
C572   C     0.44487   0.35518   1.16455   0.00000  Uiso   1.00
H573   H     0.45106   0.34505   1.18373   0.00000  Uiso   1.00
H574   H     0.46091   0.26083   1.18197   0.00000  Uiso   1.00
H575   H     0.28875   0.35854   1.08436   0.00000  Uiso   1.00
H576   H     0.30490   0.43523   1.00040   0.00000  Uiso   1.00
C577   C     0.29975   0.44019   1.05615   0.00000  Uiso   1.00
H578   H     0.31155   0.29858   1.11570   0.00000  Uiso   1.00
O579   O     0.53036   0.41012   1.11667   0.00000  Uiso   1.00
C580   C     0.28620   0.24427   1.06016   0.00000  Uiso   1.00
H581   H     0.46372   0.30740   1.15560   0.00000  Uiso   1.00
O582   O     0.23564   0.45772   1.13443   0.00000  Uiso   1.00
N583   N     0.44902   0.41333   0.98764   0.00000  Uiso   1.00
C584   C     0.54614   0.36676   1.13840   0.00000  Uiso   1.00
C585   C     0.35522   0.26699   1.08718   0.00000  Uiso   1.00
C586   C     0.28967   0.34248   1.20499   0.00000  Uiso   1.00
O587   O     0.25075   0.24964   1.19752   0.00000  Uiso   1.00
H588   H     0.24908   0.36645   1.03230   0.00000  Uiso   1.00
H589   H     0.45377   0.28028   1.05277   0.00000  Uiso   1.00
N590   N     0.32395   0.23577   0.97970   0.00000  Uiso   1.00
O591   O     0.54452   0.37725   1.16484   0.00000  Uiso   1.00
H592   H     0.51397   0.31973   1.02917   0.00000  Uiso   1.00
O593   O     0.34144   0.32155   1.19111   0.00000  Uiso   1.00
H594   H     0.34946   0.44936   1.15665   0.00000  Uiso   1.00
C595   C     0.31936   0.30270   1.19316   0.00000  Uiso   1.00
H596   H     0.36572   0.26895   1.10700   0.00000  Uiso   1.00
C597   C     0.45437   0.42924   1.00515   0.00000  Uiso   1.00
C598   C     0.29285   0.31392   1.20081   0.00000  Uiso   1.00
C599   C     0.42718   0.27640   1.10295   0.00000  Uiso   1.00
C600   C     0.32931   0.44937   1.14335   0.00000  Uiso   1.00
H601   H     0.42753   0.29252   1.08852   0.00000  Uiso   1.00
H602   H     0.35231   0.22712   1.04723   0.00000  Uiso   1.00
H603   H     0.40546   0.26901   1.10168   0.00000  Uiso   1.00
H604   H     0.28026   0.33649   1.11202   0.00000  Uiso   1.00
C605   C     0.28377   0.44144   1.00839   0.00000  Uiso   1.00
C606   C     0.44687   0.25590   1.09077   0.00000  Uiso   1.00
C607   C     0.22603   0.26122   1.20035   0.00000  Uiso   1.00
C608   C     0.51870   0.44784   1.14755   0.00000  Uiso   1.00
C609   C     0.27161   0.25951   1.03975   0.00000  Uiso   1.00
H610   H     0.51623   0.35491   1.03601   0.00000  Uiso   1.00
C611   C     0.37156   0.31704   1.04324   0.00000  Uiso   1.00
H612   H     0.31363   0.42613   1.04424   0.00000  Uiso   1.00
C613   C     0.36709   0.44171   1.06250   0.00000  Uiso   1.00
C614   C     0.38111   0.47237   1.10891   0.00000  Uiso   1.00
C615   C     0.32971   0.30969   1.10914   0.00000  Uiso   1.00
C616   C     0.31638   0.28289   1.06351   0.00000  Uiso   1.00
C617   C     0.40183   0.46552   1.08994   0.00000  Uiso   1.00
C618   C     0.39564   0.36459   0.99143   0.00000  Uiso   1.00
C619   C     0.31639   0.46058   1.07360   0.00000  Uiso   1.00
C620   C     0.38776   0.38961   1.00214   0.00000  Uiso   1.00
C621   C     0.30247   0.22845   1.18837   0.00000  Uiso   1.00
C622   C     0.29446   0.33948   1.09441   0.00000  Uiso   1.00
C623   C     0.34441   0.34246   1.07702   0.00000  Uiso   1.00
H624   H     0.34402   0.38679   1.07189   0.00000  Uiso   1.00
C625   C     0.33954   0.29391   1.08137   0.00000  Uiso   1.00
H626   H     0.53440   0.28872   1.06988   0.00000  Uiso   1.00
C627   C     0.39072   0.27344   1.15884   0.00000  Uiso   1.00
H628   H     0.36012   0.43227   1.04370   0.00000  Uiso   1.00
C629   C     0.51310   0.46072   1.17385   0.00000  Uiso   1.00
C630   C     0.37888   0.34141   1.03061   0.00000  Uiso   1.00
H631   H     0.38151   0.35077   1.17449   0.00000  Uiso   1.00
C632   C     0.45613   0.25981   1.13936   0.00000  Uiso   1.00
H633   H     0.32426   0.42962   1.13212   0.00000  Uiso   1.00
H634   H     0.23176   0.34652   1.07559   0.00000  Uiso   1.00
O635   O     0.39610   0.34045   1.00754   0.00000  Uiso   1.00
C636   C     0.30983   0.25621   1.07144   0.00000  Uiso   1.00
H637   H     0.47972   0.25435   1.05915   0.00000  Uiso   1.00
C638   C     0.28382   0.28266   1.02748   0.00000  Uiso   1.00
C639   C     0.24149   0.25404   1.00321   0.00000  Uiso   1.00
C640   C     0.46279   0.24594   1.11619   0.00000  Uiso   1.00
O641   O     0.49681   0.46255   0.99926   0.00000  Uiso   1.00
C642   C     0.32883   0.36234   1.12419   0.00000  Uiso   1.00
H643   H     0.40031   0.33800   1.10921   0.00000  Uiso   1.00
C644   C     0.32247   0.27393   1.18882   0.00000  Uiso   1.00
C645   C     0.35039   0.36702   1.06233   0.00000  Uiso   1.00
H646   H     0.27829   0.22451   1.06702   0.00000  Uiso   1.00
C647   C     0.41912   0.34852   1.11781   0.00000  Uiso   1.00
H648   H     0.46845   0.32009   1.12323   0.00000  Uiso   1.00
C649   C     0.36874   0.36616   1.04105   0.00000  Uiso   1.00
C650   C     0.43169   0.33490   1.14382   0.00000  Uiso   1.00
C651   C     0.25545   0.27524   0.98963   0.00000  Uiso   1.00
C652   C     0.43631   0.28400   1.13242   0.00000  Uiso   1.00
H653   H     0.31569   0.36271   1.14220   0.00000  Uiso   1.00
O654   O     0.23237   0.36123   1.12781   0.00000  Uiso   1.00
H655   H     0.48236   0.28470   1.07914   0.00000  Uiso   1.00
C656   C     0.35344   0.31729   1.06509   0.00000  Uiso   1.00
H657   H     0.22766   0.32407   1.03433   0.00000  Uiso   1.00
H658   H     0.24172   0.38501   0.99862   0.00000  Uiso   1.00
O659   O     0.24530   0.24951   1.03143   0.00000  Uiso   1.00
O660   O     0.34761   0.26255   1.18028   0.00000  Uiso   1.00
C661   C     0.26226   0.40745   1.12228   0.00000  Uiso   1.00
N662   N     0.28333   0.40539   1.11150   0.00000  Uiso   1.00
H663   H     0.50210   0.33227   1.06145   0.00000  Uiso   1.00
C664   C     0.52666   0.42024   1.14457   0.00000  Uiso   1.00
C665   C     0.35390   0.46607   1.10405   0.00000  Uiso   1.00
C666   C     0.48191   0.46594   1.02340   0.00000  Uiso   1.00
C667   C     0.51519   0.46317   1.12214   0.00000  Uiso   1.00
C668   C     0.48423   0.22753   1.11345   0.00000  Uiso   1.00
H669   H     0.53202   0.38545   1.07123   0.00000  Uiso   1.00
H670   H     0.32179   0.25268   1.12730   0.00000  Uiso   1.00
O671   O     0.24387   0.30822   1.20985   0.00000  Uiso   1.00
H672   H     0.54304   0.27135   1.10949   0.00000  Uiso   1.00
H673   H     0.43280   0.37402   1.17014   0.00000  Uiso   1.00
H674   H     0.25080   0.22537   1.11719   0.00000  Uiso   1.00
C675   C     0.55391   0.30024   1.06723   0.00000  Uiso   1.00
H676   H     0.27439   0.45196   0.99265   0.00000  Uiso   1.00
C677   C     0.22443   0.43277   1.14386   0.00000  Uiso   1.00
C678   C     0.37118   0.43444   0.99368   0.00000  Uiso   1.00
H679   H     0.31212   0.45219   1.15775   0.00000  Uiso   1.00
C680   C     0.53876   0.37224   1.08894   0.00000  Uiso   1.00
C681   C     0.54591   0.34552   1.08495   0.00000  Uiso   1.00
C682   C     0.44023   0.45441   1.04696   0.00000  Uiso   1.00
C683   C     0.49112   0.23335   1.16402   0.00000  Uiso   1.00
H684   H     0.25047   0.34904   1.00037   0.00000  Uiso   1.00
C685   C     0.45922   0.44867   1.02633   0.00000  Uiso   1.00
C686   C     0.32921   0.47274   1.12263   0.00000  Uiso   1.00
C687   C     0.22485   0.23564   0.98875   0.00000  Uiso   1.00
O688   O     0.50264   0.22460   1.18904   0.00000  Uiso   1.00
H689   H     0.55315   0.22367   1.09946   0.00000  Uiso   1.00
C690   C     0.30561   0.46927   1.10223   0.00000  Uiso   1.00
C691   C     0.27966   0.63660   0.38846   0.00000  Uiso   1.00
H692   H     0.47786   0.51742   0.37144   0.00000  Uiso   1.00
C693   C     0.50758   0.57538   0.34010   0.00000  Uiso   1.00
H694   H     0.48647   0.58021   0.28286   0.00000  Uiso   1.00
H695   H     0.29319   0.59234   0.38482   0.00000  Uiso   1.00
O696   O     0.37768   0.71101   0.27835   0.00000  Uiso   1.00
C697   C     0.23007   0.63159   0.25157   0.00000  Uiso   1.00
H698   H     0.43312   0.70047   0.42616   0.00000  Uiso   1.00
C699   C     0.39486   0.69369   0.26383   0.00000  Uiso   1.00
C700   C     0.30661   0.51927   0.25095   0.00000  Uiso   1.00
H701   H     0.53051   0.67374   0.43048   0.00000  Uiso   1.00
C702   C     0.31017   0.64426   0.38267   0.00000  Uiso   1.00
C703   C     0.34906   0.71627   0.31792   0.00000  Uiso   1.00
C704   C     0.53343   0.52980   0.34860   0.00000  Uiso   1.00
C705   C     0.35019   0.56218   0.42970   0.00000  Uiso   1.00
C706   C     0.50344   0.49197   0.25165   0.00000  Uiso   1.00
O707   O     0.50354   0.61112   0.41651   0.00000  Uiso   1.00
C708   C     0.26599   0.48349   0.44577   0.00000  Uiso   1.00
H709   H     0.40081   0.55934   0.43788   0.00000  Uiso   1.00
H710   H     0.25385   0.52632   0.43310   0.00000  Uiso   1.00
H711   H     0.25692   0.59854   0.39077   0.00000  Uiso   1.00
H712   H     0.27389   0.62920   0.25783   0.00000  Uiso   1.00
C713   C     0.26432   0.65700   0.36900   0.00000  Uiso   1.00
H714   H     0.50865   0.69247   0.26933   0.00000  Uiso   1.00
C715   C     0.28246   0.67244   0.35344   0.00000  Uiso   1.00
H716   H     0.44227   0.51037   0.27618   0.00000  Uiso   1.00
N717   N     0.34514   0.48592   0.37966   0.00000  Uiso   1.00
H718   H     0.35680   0.58009   0.41887   0.00000  Uiso   1.00
C719   C     0.48612   0.52617   0.32868   0.00000  Uiso   1.00
H720   H     0.32893   0.69214   0.40202   0.00000  Uiso   1.00
H721   H     0.34107   0.63484   0.32618   0.00000  Uiso   1.00
H722   H     0.29032   0.48673   0.41107   0.00000  Uiso   1.00
C723   C     0.27498   0.48456   0.28426   0.00000  Uiso   1.00
C724   C     0.50187   0.51922   0.25417   0.00000  Uiso   1.00
C725   C     0.34563   0.65725   0.32459   0.00000  Uiso   1.00
H726   H     0.49539   0.58064   0.46340   0.00000  Uiso   1.00
C727   C     0.33387   0.67567   0.34382   0.00000  Uiso   1.00
C728   C     0.33650   0.58497   0.22952   0.00000  Uiso   1.00
C729   C     0.45266   0.50844   0.29726   0.00000  Uiso   1.00
C730   C     0.55175   0.68079   0.26023   0.00000  Uiso   1.00
O731   O     0.23198   0.70444   0.30638   0.00000  Uiso   1.00
C732   C     0.51717   0.68855   0.41829   0.00000  Uiso   1.00
C733   C     0.27033   0.68533   0.33076   0.00000  Uiso   1.00
H734   H     0.32066   0.62665   0.37178   0.00000  Uiso   1.00
C735   C     0.50311   0.53813   0.23209   0.00000  Uiso   1.00
H736   H     0.27740   0.66335   0.42326   0.00000  Uiso   1.00
O737   O     0.24175   0.71888   0.42812   0.00000  Uiso   1.00
H738   H     0.49768   0.57591   0.36099   0.00000  Uiso   1.00
H739   H     0.53459   0.55934   0.29662   0.00000  Uiso   1.00
H740   H     0.46276   0.55788   0.26430   0.00000  Uiso   1.00
C741   C     0.52824   0.68475   0.27656   0.00000  Uiso   1.00
C742   C     0.27475   0.60626   0.37844   0.00000  Uiso   1.00
C743   C     0.22369   0.60228   0.25992   0.00000  Uiso   1.00
H744   H     0.35524   0.54294   0.41804   0.00000  Uiso   1.00
C745   C     0.50263   0.62553   0.39149   0.00000  Uiso   1.00
H746   H     0.36231   0.71891   0.38695   0.00000  Uiso   1.00
C747   C     0.24205   0.68842   0.32784   0.00000  Uiso   1.00
N748   N     0.31271   0.71590   0.44948   0.00000  Uiso   1.00
C749   C     0.42752   0.61019   0.43192   0.00000  Uiso   1.00
O750   O     0.45896   0.64853   0.22827   0.00000  Uiso   1.00
C751   C     0.45460   0.66159   0.34537   0.00000  Uiso   1.00
C752   C     0.47968   0.63901   0.38311   0.00000  Uiso   1.00
C753   C     0.44912   0.49743   0.34523   0.00000  Uiso   1.00
H754   H     0.51451   0.64383   0.23334   0.00000  Uiso   1.00
H755   H     0.29616   0.70370   0.39382   0.00000  Uiso   1.00
O756   O     0.45274   0.63698   0.39806   0.00000  Uiso   1.00
C757   C     0.45296   0.61905   0.41989   0.00000  Uiso   1.00
H758   H     0.40670   0.61733   0.42619   0.00000  Uiso   1.00
C759   C     0.31468   0.69591   0.38326   0.00000  Uiso   1.00
C760   C     0.36131   0.55984   0.45925   0.00000  Uiso   1.00
C761   C     0.49731   0.71664   0.45575   0.00000  Uiso   1.00
N762   N     0.43473   0.66989   0.33540   0.00000  Uiso   1.00
C763   C     0.31469   0.51608   0.27817   0.00000  Uiso   1.00
H764   H     0.49821   0.69700   0.46630   0.00000  Uiso   1.00
H765   H     0.28953   0.52071   0.43938   0.00000  Uiso   1.00
H766   H     0.49339   0.58600   0.32678   0.00000  Uiso   1.00
H767   H     0.38062   0.52401   0.27294   0.00000  Uiso   1.00
C768   C     0.49660   0.53603   0.28054   0.00000  Uiso   1.00
O769   O     0.43863   0.48364   0.36664   0.00000  Uiso   1.00
C770   C     0.28198   0.50899   0.24275   0.00000  Uiso   1.00
H771   H     0.36771   0.49090   0.26640   0.00000  Uiso   1.00
C772   C     0.47137   0.51361   0.34953   0.00000  Uiso   1.00
H773   H     0.32664   0.56200   0.42799   0.00000  Uiso   1.00
C774   C     0.36335   0.69908   0.30064   0.00000  Uiso   1.00
H775   H     0.25094   0.63637   0.42351   0.00000  Uiso   1.00
H776   H     0.27357   0.60476   0.35714   0.00000  Uiso   1.00
C777   C     0.36471   0.66918   0.30554   0.00000  Uiso   1.00
H778   H     0.25400   0.48159   0.40521   0.00000  Uiso   1.00
C779   C     0.31095   0.66994   0.36477   0.00000  Uiso   1.00
C780   C     0.55332   0.68664   0.22882   0.00000  Uiso   1.00
O781   O     0.50298   0.67401   0.31847   0.00000  Uiso   1.00
H782   H     0.34870   0.51820   0.46504   0.00000  Uiso   1.00
O783   O     0.30747   0.49132   0.32068   0.00000  Uiso   1.00
H784   H     0.32148   0.64874   0.40132   0.00000  Uiso   1.00
H785   H     0.26024   0.66376   0.26124   0.00000  Uiso   1.00
H786   H     0.53722   0.50859   0.34022   0.00000  Uiso   1.00
C787   C     0.26813   0.51470   0.44672   0.00000  Uiso   1.00
H788   H     0.40100   0.49955   0.25668   0.00000  Uiso   1.00
H789   H     0.24688   0.48202   0.24701   0.00000  Uiso   1.00
C790   C     0.37953   0.50796   0.25765   0.00000  Uiso   1.00
C791   C     0.47916   0.65341   0.35849   0.00000  Uiso   1.00
C792   C     0.47711   0.59089   0.45296   0.00000  Uiso   1.00
C793   C     0.47702   0.52312   0.30144   0.00000  Uiso   1.00
C794   C     0.52124   0.54123   0.29993   0.00000  Uiso   1.00
C795   C     0.41821   0.65167   0.25649   0.00000  Uiso   1.00
C796   C     0.42820   0.59530   0.45568   0.00000  Uiso   1.00
C797   C     0.50342   0.65757   0.34271   0.00000  Uiso   1.00
C798   C     0.33606   0.70413   0.34084   0.00000  Uiso   1.00
H799   H     0.52768   0.58587   0.33977   0.00000  Uiso   1.00
H800   H     0.55309   0.54063   0.34712   0.00000  Uiso   1.00
C801   C     0.29842   0.49759   0.29413   0.00000  Uiso   1.00
H802   H     0.54063   0.56974   0.25243   0.00000  Uiso   1.00
H803   H     0.25481   0.63722   0.28876   0.00000  Uiso   1.00
H804   H     0.50403   0.47873   0.26951   0.00000  Uiso   1.00
C805   C     0.23500   0.65899   0.36649   0.00000  Uiso   1.00
H806   H     0.28402   0.69684   0.31600   0.00000  Uiso   1.00
C807   C     0.34172   0.55736   0.22872   0.00000  Uiso   1.00
C808   C     0.48449   0.56243   0.26784   0.00000  Uiso   1.00
H809   H     0.33452   0.52453   0.28713   0.00000  Uiso   1.00
C810   C     0.44788   0.69717   0.44360   0.00000  Uiso   1.00
H811   H     0.23907   0.58914   0.25004   0.00000  Uiso   1.00
C812   C     0.47801   0.60697   0.42964   0.00000  Uiso   1.00
C813   C     0.52574   0.58280   0.24299   0.00000  Uiso   1.00
H814   H     0.28703   0.63080   0.43291   0.00000  Uiso   1.00
C815   C     0.45292   0.58476   0.46566   0.00000  Uiso   1.00
H816   H     0.49711   0.67932   0.41816   0.00000  Uiso   1.00
H817   H     0.52516   0.68860   0.39804   0.00000  Uiso   1.00
C818   C     0.25641   0.64072   0.26627   0.00000  Uiso   1.00
C819   C     0.39056   0.56668   0.22563   0.00000  Uiso   1.00
H820   H     0.47241   0.60142   0.22955   0.00000  Uiso   1.00
C821   C     0.43892   0.49564   0.31798   0.00000  Uiso   1.00
C822   C     0.52720   0.62907   0.37615   0.00000  Uiso   1.00
O823   O     0.55313   0.64840   0.33900   0.00000  Uiso   1.00
C824   C     0.40856   0.70430   0.24012   0.00000  Uiso   1.00
C825   C     0.51137   0.54386   0.32991   0.00000  Uiso   1.00
C826   C     0.42362   0.62469   0.26503   0.00000  Uiso   1.00
C827   C     0.52691   0.67402   0.30308   0.00000  Uiso   1.00
N828   N     0.42924   0.60229   0.27305   0.00000  Uiso   1.00
H829   H     0.53683   0.52344   0.29963   0.00000  Uiso   1.00
C830   C     0.37016   0.51731   0.22954   0.00000  Uiso   1.00
C831   C     0.26655   0.49003   0.25824   0.00000  Uiso   1.00
O832   O     0.38246   0.65241   0.29098   0.00000  Uiso   1.00
C833   C     0.27212   0.64225   0.41888   0.00000  Uiso   1.00
H834   H     0.46111   0.68067   0.43764   0.00000  Uiso   1.00
C835   C     0.52678   0.64486   0.35259   0.00000  Uiso   1.00
C836   C     0.39760   0.66566   0.27008   0.00000  Uiso   1.00
C837   C     0.49867   0.56743   0.24046   0.00000  Uiso   1.00
C838   C     0.22345   0.67698   0.34725   0.00000  Uiso   1.00
H839   H     0.52843   0.52858   0.36957   0.00000  Uiso   1.00
C840   C     0.43602   0.66311   0.23809   0.00000  Uiso   1.00
H841   H     0.52175   0.60110   0.25497   0.00000  Uiso   1.00
H842   H     0.26608   0.52435   0.46829   0.00000  Uiso   1.00
C843   C     0.55119   0.65931   0.31302   0.00000  Uiso   1.00
O844   O     0.41579   0.48023   0.31052   0.00000  Uiso   1.00
H845   H     0.39391   0.70806   0.45170   0.00000  Uiso   1.00
H846   H     0.24439   0.54683   0.23116   0.00000  Uiso   1.00
C847   C     0.32155   0.53228   0.22683   0.00000  Uiso   1.00
C848   C     0.51636   0.71796   0.42945   0.00000  Uiso   1.00
C849   C     0.42915   0.68821   0.22802   0.00000  Uiso   1.00
H850   H     0.41316   0.55939   0.22375   0.00000  Uiso   1.00
H851   H     0.39618   0.67287   0.45643   0.00000  Uiso   1.00
C852   C     0.55113   0.61774   0.38790   0.00000  Uiso   1.00
C853   C     0.39252   0.55834   0.45901   0.00000  Uiso   1.00
C854   C     0.32491   0.72000   0.36497   0.00000  Uiso   1.00
C855   C     0.36837   0.54806   0.22985   0.00000  Uiso   1.00
C856   C     0.50798   0.48025   0.22570   0.00000  Uiso   1.00
H857   H     0.40092   0.54005   0.46963   0.00000  Uiso   1.00
H858   H     0.22802   0.60085   0.28151   0.00000  Uiso   1.00
C859   C     0.40178   0.69245   0.46563   0.00000  Uiso   1.00
C860   C     0.43284   0.69444   0.47190   0.00000  Uiso   1.00
H861   H     0.45034   0.52697   0.46884   0.00000  Uiso   1.00
H862   H     0.31540   0.59223   0.23369   0.00000  Uiso   1.00
C863   C     0.27200   0.47474   0.41750   0.00000  Uiso   1.00
H864   H     0.53465   0.58821   0.22320   0.00000  Uiso   1.00
H865   H     0.40624   0.51497   0.63837   0.00000  Uiso   1.00
C866   C     0.49891   0.70928   0.70772   0.00000  Uiso   1.00
C867   C     0.36499   0.67014   0.62998   0.00000  Uiso   1.00
C868   C     0.37941   0.60100   0.47938   0.00000  Uiso   1.00
C869   C     0.37434   0.71812   0.64971   0.00000  Uiso   1.00
H870   H     0.30062   0.53964   0.60564   0.00000  Uiso   1.00
H871   H     0.29404   0.61929   0.59846   0.00000  Uiso   1.00
C872   C     0.24623   0.59986   0.62551   0.00000  Uiso   1.00
C873   C     0.36372   0.54900   0.63566   0.00000  Uiso   1.00
C874   C     0.35314   0.49914   0.62488   0.00000  Uiso   1.00
H875   H     0.33083   0.51802   0.53827   0.00000  Uiso   1.00
O876   O     0.30269   0.63611   0.49452   0.00000  Uiso   1.00
C877   C     0.41349   0.57145   0.59550   0.00000  Uiso   1.00
C878   C     0.35678   0.59500   0.66857   0.00000  Uiso   1.00
C879   C     0.44054   0.55695   0.63500   0.00000  Uiso   1.00
C880   C     0.46687   0.57751   0.51691   0.00000  Uiso   1.00
H881   H     0.27614   0.63928   0.57514   0.00000  Uiso   1.00
H882   H     0.35324   0.66263   0.64886   0.00000  Uiso   1.00
H883   H     0.39633   0.71275   0.59802   0.00000  Uiso   1.00
H884   H     0.41142   0.51498   0.60322   0.00000  Uiso   1.00
H885   H     0.37292   0.52621   0.57323   0.00000  Uiso   1.00
O886   O     0.35300   0.66522   0.50987   0.00000  Uiso   1.00
H887   H     0.23347   0.56196   0.58636   0.00000  Uiso   1.00
H888   H     0.33937   0.51913   0.70484   0.00000  Uiso   1.00
H889   H     0.28656   0.51465   0.58450   0.00000  Uiso   1.00
H890   H     0.52117   0.68432   0.50121   0.00000  Uiso   1.00
C891   C     0.33124   0.64717   0.71457   0.00000  Uiso   1.00
O892   O     0.24987   0.72217   0.65362   0.00000  Uiso   1.00
H893   H     0.39869   0.63412   0.49907   0.00000  Uiso   1.00
C894   C     0.46043   0.48503   0.71034   0.00000  Uiso   1.00
C895   C     0.27379   0.62099   0.58778   0.00000  Uiso   1.00
C896   C     0.32924   0.62420   0.49255   0.00000  Uiso   1.00
H897   H     0.54852   0.63227   0.47759   0.00000  Uiso   1.00
H898   H     0.31192   0.48807   0.55068   0.00000  Uiso   1.00
C899   C     0.44876   0.56753   0.49284   0.00000  Uiso   1.00
C900   C     0.36131   0.70122   0.62469   0.00000  Uiso   1.00
C901   C     0.27780   0.67776   0.50179   0.00000  Uiso   1.00
C902   C     0.30272   0.53057   0.58622   0.00000  Uiso   1.00
H903   H     0.26042   0.67206   0.61230   0.00000  Uiso   1.00
H904   H     0.44255   0.55022   0.65669   0.00000  Uiso   1.00
C905   C     0.33387   0.62266   0.69989   0.00000  Uiso   1.00
C906   C     0.28666   0.48740   0.71181   0.00000  Uiso   1.00
C907   C     0.40042   0.52566   0.61895   0.00000  Uiso   1.00
H908   H     0.46337   0.56310   0.53498   0.00000  Uiso   1.00
H909   H     0.46482   0.59856   0.52422   0.00000  Uiso   1.00
H910   H     0.25543   0.52442   0.60969   0.00000  Uiso   1.00
H911   H     0.30872   0.53816   0.70374   0.00000  Uiso   1.00
H912   H     0.31478   0.71120   0.58700   0.00000  Uiso   1.00
H913   H     0.45972   0.48648   0.66426   0.00000  Uiso   1.00
H914   H     0.43850   0.67161   0.50960   0.00000  Uiso   1.00
C915   C     0.38186   0.59105   0.65516   0.00000  Uiso   1.00
C916   C     0.32191   0.52590   0.71787   0.00000  Uiso   1.00
H917   H     0.38913   0.69495   0.48496   0.00000  Uiso   1.00
C918   C     0.33064   0.50196   0.55543   0.00000  Uiso   1.00
H919   H     0.42147   0.59225   0.59898   0.00000  Uiso   1.00
C920   C     0.38614   0.56669   0.64053   0.00000  Uiso   1.00
C921   C     0.34609   0.53746   0.47555   0.00000  Uiso   1.00
H922   H     0.35007   0.49084   0.54918   0.00000  Uiso   1.00
H923   H     0.35638   0.65680   0.61393   0.00000  Uiso   1.00
C924   C     0.25202   0.62766   0.60974   0.00000  Uiso   1.00
C925   C     0.35618   0.53127   0.58842   0.00000  Uiso   1.00
C926   C     0.35349   0.63866   0.49885   0.00000  Uiso   1.00
H927   H     0.29921   0.54593   0.56907   0.00000  Uiso   1.00
N928   N     0.42054   0.57728   0.70215   0.00000  Uiso   1.00
C929   C     0.33029   0.59844   0.47991   0.00000  Uiso   1.00
C930   C     0.25305   0.66377   0.49586   0.00000  Uiso   1.00
H931   H     0.50619   0.49975   0.60957   0.00000  Uiso   1.00
C932   C     0.32966   0.51420   0.58402   0.00000  Uiso   1.00
H933   H     0.49319   0.69375   0.69219   0.00000  Uiso   1.00
C934   C     0.33846   0.55492   0.64670   0.00000  Uiso   1.00
H935   H     0.23465   0.67090   0.56942   0.00000  Uiso   1.00
C936   C     0.30950   0.60551   0.69621   0.00000  Uiso   1.00
H937   H     0.32139   0.54081   0.64251   0.00000  Uiso   1.00
C938   C     0.36924   0.52571   0.61666   0.00000  Uiso   1.00
C939   C     0.30978   0.71136   0.60871   0.00000  Uiso   1.00
H940   H     0.45536   0.54359   0.62081   0.00000  Uiso   1.00
C941   C     0.27638   0.71872   0.64507   0.00000  Uiso   1.00
H942   H     0.28107   0.65162   0.63384   0.00000  Uiso   1.00
H943   H     0.44752   0.52459   0.50458   0.00000  Uiso   1.00
H944   H     0.38722   0.66536   0.63323   0.00000  Uiso   1.00
H945   H     0.24388   0.51194   0.64272   0.00000  Uiso   1.00
O946   O     0.35708   0.61899   0.68411   0.00000  Uiso   1.00
C947   C     0.35906   0.47950   0.64647   0.00000  Uiso   1.00
H948   H     0.39957   0.60607   0.65933   0.00000  Uiso   1.00
C949   C     0.41097   0.55591   0.62364   0.00000  Uiso   1.00
H950   H     0.41884   0.58874   0.51590   0.00000  Uiso   1.00
H951   H     0.52839   0.63238   0.50899   0.00000  Uiso   1.00
H952   H     0.25667   0.54694   0.63699   0.00000  Uiso   1.00
C953   C     0.54973   0.63552   0.50182   0.00000  Uiso   1.00
H954   H     0.47819   0.71619   0.65411   0.00000  Uiso   1.00
C955   C     0.23119   0.49128   0.72008   0.00000  Uiso   1.00
H956   H     0.35096   0.55392   0.58355   0.00000  Uiso   1.00
H957   H     0.23226   0.50697   0.70416   0.00000  Uiso   1.00
N958   N     0.23259   0.65117   0.49209   0.00000  Uiso   1.00
H959   H     0.48053   0.53438   0.49049   0.00000  Uiso   1.00
N960   N     0.24488   0.57821   0.71451   0.00000  Uiso   1.00
H961   H     0.44757   0.57912   0.63370   0.00000  Uiso   1.00
H962   H     0.54335   0.69449   0.47629   0.00000  Uiso   1.00
H963   H     0.42943   0.56094   0.58156   0.00000  Uiso   1.00
C964   C     0.26034   0.65341   0.62660   0.00000  Uiso   1.00
C965   C     0.41825   0.57261   0.49962   0.00000  Uiso   1.00
O966   O     0.45396   0.51317   0.71315   0.00000  Uiso   1.00
C967   C     0.28606   0.61108   0.71179   0.00000  Uiso   1.00
C968   C     0.37853   0.62541   0.49362   0.00000  Uiso   1.00
C969   C     0.50970   0.48462   0.62627   0.00000  Uiso   1.00
H970   H     0.37336   0.68933   0.58088   0.00000  Uiso   1.00
C971   C     0.24481   0.52891   0.62858   0.00000  Uiso   1.00
C972   C     0.33177   0.49285   0.60775   0.00000  Uiso   1.00
H973   H     0.35516   0.53233   0.49597   0.00000  Uiso   1.00
C974   C     0.35577   0.66391   0.71582   0.00000  Uiso   1.00
C975   C     0.45759   0.53677   0.48772   0.00000  Uiso   1.00
H976   H     0.39415   0.57196   0.58358   0.00000  Uiso   1.00
C977   C     0.32624   0.70554   0.51365   0.00000  Uiso   1.00
C978   C     0.30264   0.66409   0.50339   0.00000  Uiso   1.00
C979   C     0.33479   0.57731   0.66401   0.00000  Uiso   1.00
H980   H     0.26264   0.58691   0.61771   0.00000  Uiso   1.00
H981   H     0.38634   0.70546   0.66416   0.00000  Uiso   1.00
O982   O     0.30927   0.58321   0.67640   0.00000  Uiso   1.00
C983   C     0.32718   0.67826   0.50988   0.00000  Uiso   1.00
H984   H     0.53155   0.48786   0.63422   0.00000  Uiso   1.00
H985   H     0.33985   0.72165   0.70669   0.00000  Uiso   1.00
C986   C     0.33081   0.70919   0.62791   0.00000  Uiso   1.00
C987   C     0.26380   0.59285   0.71396   0.00000  Uiso   1.00
H988   H     0.44718   0.69513   0.71443   0.00000  Uiso   1.00
H989   H     0.48975   0.57674   0.51254   0.00000  Uiso   1.00
H990   H     0.24463   0.65867   0.64209   0.00000  Uiso   1.00
C991   C     0.43051   0.56443   0.71948   0.00000  Uiso   1.00
H992   H     0.27045   0.60282   0.57512   0.00000  Uiso   1.00
C993   C     0.22566   0.63446   0.59515   0.00000  Uiso   1.00
C994   C     0.44654   0.67189   0.48866   0.00000  Uiso   1.00
H995   H     0.37712   0.48138   0.65942   0.00000  Uiso   1.00
H996   H     0.49368   0.48878   0.64094   0.00000  Uiso   1.00
H997   H     0.25384   0.59774   0.64838   0.00000  Uiso   1.00
C998   C     0.46341   0.47323   0.68411   0.00000  Uiso   1.00
H999   H     0.40876   0.55234   0.50712   0.00000  Uiso   1.00
H1000  H     0.23156   0.49043   0.52302   0.00000  Uiso   1.00
H1001  H     0.28165   0.49955   0.69276   0.00000  Uiso   1.00
H1002  H     0.41981   0.71824   0.52635   0.00000  Uiso   1.00
H1003  H     0.54893   0.70758   0.51084   0.00000  Uiso   1.00
C1004  C     0.29764   0.72112   0.66381   0.00000  Uiso   1.00
C1005  C     0.30264   0.72038   0.50790   0.00000  Uiso   1.00
H1006  H     0.46834   0.67467   0.48815   0.00000  Uiso   1.00
C1007  C     0.27772   0.70716   0.50353   0.00000  Uiso   1.00
C1008  C     0.54328   0.68898   0.49862   0.00000  Uiso   1.00
C1009  C     0.34960   0.71910   0.52343   0.00000  Uiso   1.00
H1010  H     0.22967   0.51059   0.49361   0.00000  Uiso   1.00
C1011  C     0.37427   0.70718   0.59655   0.00000  Uiso   1.00
O1012  O     0.25320   0.72129   0.50047   0.00000  Uiso   1.00
C1013  C     0.28338   0.71772   0.61626   0.00000  Uiso   1.00
N1014  N     0.51228   0.71453   0.55726   0.00000  Uiso   1.00
C1015  C     0.32542   0.71874   0.65465   0.00000  Uiso   1.00
H1016  H     0.54556   0.67077   0.54961   0.00000  Uiso   1.00
H1017  H     0.32378   0.54255   0.47965   0.00000  Uiso   1.00
H1018  H     0.51875   0.71922   0.70078   0.00000  Uiso   1.00
H1019  H     0.43979   0.65152   0.47924   0.00000  Uiso   1.00
H1020  H     0.31148   0.58846   0.47333   0.00000  Uiso   1.00
N1021  N     0.37676   0.67676   0.71702   0.00000  Uiso   1.00
C1022  C     0.22423   0.48914   0.50086   0.00000  Uiso   1.00
H1023  H     0.33985   0.47495   0.72019   0.00000  Uiso   1.00
C1024  C     0.35558   0.58677   0.47341   0.00000  Uiso   1.00
C1025  C     0.40497   0.58299   0.47343   0.00000  Uiso   1.00
C1026  C     0.35353   0.67139   0.95140   0.00000  Uiso   1.00
C1027  C     0.22866   0.64075   0.95638   0.00000  Uiso   1.00
C1028  C     0.29087   0.51120   0.75646   0.00000  Uiso   1.00
H1029  H     0.47639   0.68677   0.83080   0.00000  Uiso   1.00
C1030  C     0.45149   0.50058   0.93385   0.00000  Uiso   1.00
C1031  C     0.32425   0.69505   0.91476   0.00000  Uiso   1.00
O1032  O     0.23244   0.52772   0.81862   0.00000  Uiso   1.00
H1033  H     0.41276   0.66688   0.87503   0.00000  Uiso   1.00
C1034  C     0.47423   0.50671   0.80937   0.00000  Uiso   1.00
H1035  H     0.39506   0.69906   0.83373   0.00000  Uiso   1.00
C1036  C     0.44472   0.56353   0.76834   0.00000  Uiso   1.00
C1037  C     0.30672   0.65425   0.72904   0.00000  Uiso   1.00
H1038  H     0.51549   0.63589   0.93983   0.00000  Uiso   1.00
C1039  C     0.26516   0.49747   0.75606   0.00000  Uiso   1.00
C1040  C     0.44334   0.62997   0.89813   0.00000  Uiso   1.00
O1041  O     0.50832   0.55927   0.95223   0.00000  Uiso   1.00
C1042  C     0.44990   0.71572   0.72419   0.00000  Uiso   1.00
C1043  C     0.40383   0.68076   0.82235   0.00000  Uiso   1.00
H1044  H     0.27838   0.65934   0.85655   0.00000  Uiso   1.00
O1045  O     0.43453   0.59006   0.77135   0.00000  Uiso   1.00
O1046  O     0.46774   0.47965   0.76059   0.00000  Uiso   1.00
H1047  H     0.31513   0.65756   0.89304   0.00000  Uiso   1.00
C1048  C     0.25744   0.66384   0.75380   0.00000  Uiso   1.00
C1049  C     0.47477   0.52683   0.96852   0.00000  Uiso   1.00
C1050  C     0.39412   0.70579   0.94562   0.00000  Uiso   1.00
C1051  C     0.25144   0.52225   0.79692   0.00000  Uiso   1.00
C1052  C     0.26005   0.48117   0.72949   0.00000  Uiso   1.00
C1053  C     0.33094   0.70856   0.84323   0.00000  Uiso   1.00
C1054  C     0.30074   0.71251   0.90936   0.00000  Uiso   1.00
H1055  H     0.22630   0.49044   0.77699   0.00000  Uiso   1.00
C1056  C     0.25813   0.49577   0.91732   0.00000  Uiso   1.00
C1057  C     0.48529   0.64916   0.91195   0.00000  Uiso   1.00
C1058  C     0.50254   0.54604   0.89868   0.00000  Uiso   1.00
H1059  H     0.45308   0.70955   0.74613   0.00000  Uiso   1.00
C1060  C     0.24900   0.63337   0.93564   0.00000  Uiso   1.00
C1061  C     0.27163   0.58208   0.85448   0.00000  Uiso   1.00
C1062  C     0.43025   0.67319   0.83480   0.00000  Uiso   1.00
C1063  C     0.35774   0.53176   0.82246   0.00000  Uiso   1.00
H1064  H     0.51686   0.62004   0.90685   0.00000  Uiso   1.00
C1065  C     0.45547   0.58883   0.81908   0.00000  Uiso   1.00
H1066  H     0.23102   0.66994   0.82839   0.00000  Uiso   1.00
C1067  C     0.45448   0.69170   0.82250   0.00000  Uiso   1.00
O1068  O     0.30126   0.68078   0.73976   0.00000  Uiso   1.00
H1069  H     0.26824   0.64571   0.93423   0.00000  Uiso   1.00
C1070  C     0.48858   0.53111   0.91966   0.00000  Uiso   1.00
H1071  H     0.40571   0.68503   0.80061   0.00000  Uiso   1.00
H1072  H     0.40060   0.50095   0.83317   0.00000  Uiso   1.00
C1073  C     0.31748   0.51799   0.87619   0.00000  Uiso   1.00
C1074  C     0.46243   0.62867   0.91837   0.00000  Uiso   1.00
H1075  H     0.41960   0.64146   0.78401   0.00000  Uiso   1.00
H1076  H     0.34085   0.54727   0.82522   0.00000  Uiso   1.00
N1077  N     0.23477   0.55683   0.94823   0.00000  Uiso   1.00
C1078  C     0.29565   0.71192   0.88121   0.00000  Uiso   1.00
H1079  H     0.40290   0.61485   0.88296   0.00000  Uiso   1.00
C1080  C     0.29806   0.59381   0.85447   0.00000  Uiso   1.00
N1081  N     0.32004   0.60308   0.85346   0.00000  Uiso   1.00
O1082  O     0.27629   0.51346   0.90336   0.00000  Uiso   1.00
C1083  C     0.41888   0.61393   0.90060   0.00000  Uiso   1.00
N1084  N     0.32275   0.56374   0.91927   0.00000  Uiso   1.00
C1085  C     0.45744   0.55009   0.79044   0.00000  Uiso   1.00
O1086  O     0.26074   0.61047   0.89371   0.00000  Uiso   1.00
O1087  O     0.26220   0.63729   0.74394   0.00000  Uiso   1.00
H1088  H     0.34682   0.67057   0.88309   0.00000  Uiso   1.00
H1089  H     0.40193   0.49860   0.86742   0.00000  Uiso   1.00
C1090  C     0.43655   0.64311   0.82656   0.00000  Uiso   1.00
C1091  C     0.28496   0.63452   0.72771   0.00000  Uiso   1.00
C1092  C     0.23515   0.53388   0.94216   0.00000  Uiso   1.00
H1093  H     0.36043   0.56109   0.86879   0.00000  Uiso   1.00
C1094  C     0.37559   0.54466   0.86959   0.00000  Uiso   1.00
H1095  H     0.37617   0.54205   0.81341   0.00000  Uiso   1.00
C1096  C     0.33900   0.56200   0.93559   0.00000  Uiso   1.00
H1097  H     0.49137   0.67260   0.87414   0.00000  Uiso   1.00
H1098  H     0.47300   0.60829   0.95753   0.00000  Uiso   1.00
H1099  H     0.31727   0.53832   0.78084   0.00000  Uiso   1.00
C1100  C     0.32624   0.67674   0.88821   0.00000  Uiso   1.00
C1101  C     0.30777   0.50166   0.73044   0.00000  Uiso   1.00
C1102  C     0.23235   0.66707   0.76738   0.00000  Uiso   1.00
H1103  H     0.34395   0.48710   0.75358   0.00000  Uiso   1.00
C1104  C     0.34044   0.50663   0.86294   0.00000  Uiso   1.00
C1105  C     0.45459   0.50750   0.96116   0.00000  Uiso   1.00
H1106  H     0.28310   0.68632   0.83212   0.00000  Uiso   1.00
H1107  H     0.45028   0.71391   0.82556   0.00000  Uiso   1.00
C1108  C     0.38307   0.57280   0.95088   0.00000  Uiso   1.00
C1109  C     0.48955   0.53923   0.94673   0.00000  Uiso   1.00
C1110  C     0.27793   0.53562   0.79708   0.00000  Uiso   1.00
C1111  C     0.29722   0.50112   0.88661   0.00000  Uiso   1.00
C1112  C     0.46529   0.52222   0.78710   0.00000  Uiso   1.00
C1113  C     0.25288   0.59036   0.87472   0.00000  Uiso   1.00
H1114  H     0.53008   0.65359   0.91094   0.00000  Uiso   1.00
C1115  C     0.35243   0.71111   0.91938   0.00000  Uiso   1.00
N1116  N     0.51222   0.55820   0.88108   0.00000  Uiso   1.00
H1117  H     0.35503   0.62763   0.94226   0.00000  Uiso   1.00
C1118  C     0.32924   0.47970   0.73814   0.00000  Uiso   1.00
H1119  H     0.38944   0.66485   0.82496   0.00000  Uiso   1.00
C1120  C     0.46115   0.50822   0.76229   0.00000  Uiso   1.00
C1121  C     0.29629   0.53089   0.77635   0.00000  Uiso   1.00
C1122  C     0.46048   0.60319   0.84408   0.00000  Uiso   1.00
C1123  C     0.44967   0.62970   0.84834   0.00000  Uiso   1.00
C1124  C     0.48085   0.67550   0.92944   0.00000  Uiso   1.00
C1125  C     0.35805   0.56028   0.95530   0.00000  Uiso   1.00
H1126  H     0.37831   0.53884   0.89238   0.00000  Uiso   1.00
O1127  O     0.46528   0.56292   0.81488   0.00000  Uiso   1.00
C1128  C     0.29432   0.67227   0.84673   0.00000  Uiso   1.00
C1129  C     0.41440   0.59831   0.92334   0.00000  Uiso   1.00
H1130  H     0.37454   0.64863   0.91720   0.00000  Uiso   1.00
H1131  H     0.48899   0.67308   0.95091   0.00000  Uiso   1.00
O1132  O     0.28441   0.55608   0.81643   0.00000  Uiso   1.00
H1133  H     0.43817   0.69161   0.87515   0.00000  Uiso   1.00
H1134  H     0.45409   0.68821   0.79979   0.00000  Uiso   1.00
H1135  H     0.45948   0.68102   0.92794   0.00000  Uiso   1.00
C1136  C     0.36851   0.64574   0.94027   0.00000  Uiso   1.00
C1137  C     0.27643   0.68515   0.75283   0.00000  Uiso   1.00
C1138  C     0.32293   0.67649   0.94130   0.00000  Uiso   1.00
C1139  C     0.36764   0.69688   0.93910   0.00000  Uiso   1.00
C1140  C     0.43304   0.62967   0.80131   0.00000  Uiso   1.00
C1141  C     0.24581   0.50322   0.77649   0.00000  Uiso   1.00
C1142  C     0.44153   0.60361   0.79752   0.00000  Uiso   1.00
C1143  C     0.45143   0.64714   0.87329   0.00000  Uiso   1.00
H1144  H     0.49260   0.69262   0.92153   0.00000  Uiso   1.00
H1145  H     0.38820   0.64230   0.95291   0.00000  Uiso   1.00
C1146  C     0.23994   0.54697   0.83867   0.00000  Uiso   1.00
O1147  O     0.43108   0.57844   0.96681   0.00000  Uiso   1.00
C1148  C     0.36512   0.52078   0.85156   0.00000  Uiso   1.00
F1149  F     0.46431   0.50171   0.88746   0.00000  Uiso   1.00
H1150  H     0.47058   0.59117   0.86169   0.00000  Uiso   1.00
C1151  C     0.48142   0.65368   0.88087   0.00000  Uiso   1.00
H1152  H     0.31470   0.54124   0.87856   0.00000  Uiso   1.00
N1153  N     0.48175   0.49288   0.82741   0.00000  Uiso   1.00
H1154  H     0.30819   0.65694   0.83531   0.00000  Uiso   1.00
C1155  C     0.43223   0.67102   0.86679   0.00000  Uiso   1.00
H1156  H     0.31148   0.65736   0.94071   0.00000  Uiso   1.00
C1157  C     0.24165   0.61464   0.91508   0.00000  Uiso   1.00
F1158  F     0.43087   0.48402   0.92547   0.00000  Uiso   1.00
C1159  C     0.43491   0.59602   0.94402   0.00000  Uiso   1.00
C1160  C     0.51413   0.63937   0.91824   0.00000  Uiso   1.00
C1161  C     0.38647   0.49761   0.85054   0.00000  Uiso   1.00
H1162  H     0.35144   0.51418   0.81032   0.00000  Uiso   1.00
C1163  C     0.47020   0.51013   0.91340   0.00000  Uiso   1.00
O1164  O     0.38894   0.58599   0.92518   0.00000  Uiso   1.00
C1165  C     0.26475   0.56247   0.83600   0.00000  Uiso   1.00
C1166  C     0.45912   0.61122   0.94023   0.00000  Uiso   1.00
H1167  H     0.33958   0.69299   0.82880   0.00000  Uiso   1.00
H1168  H     0.40706   0.69552   0.96203   0.00000  Uiso   1.00
C1169  C     0.31248   0.69123   0.86492   0.00000  Uiso   1.00
H1170  H     0.49380   0.63701   0.87043   0.00000  Uiso   1.00
H1171  H     0.39509   0.55347   0.86176   0.00000  Uiso   1.00
C1172  C     0.26825   0.71121   0.76173   0.00000  Uiso   1.00
H1173  H     0.31458   0.69004   0.95664   0.00000  Uiso   1.00
C1174  C     0.44158   0.55028   0.74244   0.00000  Uiso   1.00
H1175  H     0.54192   0.59827   0.97066   0.00000  Uiso   1.00
C1176  C     0.23644   0.50584   0.93367   0.00000  Uiso   1.00
H1177  H     0.33205   0.54033   0.73229   0.00000  Uiso   1.00
H1178  H     0.24063   0.69641   0.95746   0.00000  Uiso   1.00
C1179  C     0.22666   0.57793   0.87576   0.00000  Uiso   1.00
C1180  C     0.24397   0.71554   0.77692   0.00000  Uiso   1.00
C1181  C     0.22869   0.69148   0.78189   0.00000  Uiso   1.00
H1182  H     0.50412   0.69685   0.72610   0.00000  Uiso   1.00
C1183  C     0.45138   0.52344   0.73929   0.00000  Uiso   1.00
C1184  C     0.34216   0.47887   0.85997   0.00000  Uiso   1.00
C1185  C     0.40344   0.56933   0.97072   0.00000  Uiso   1.00
H1186  H     0.34894   0.72036   0.85208   0.00000  Uiso   1.00
H1187  H     0.26954   0.67615   0.97015   0.00000  Uiso   1.00
C1188  C     0.25372   0.63426   1.17552   0.00000  Uiso   1.00
H1189  H     0.27068   0.59053   1.04867   0.00000  Uiso   1.00
C1190  C     0.44998   0.67904   1.03324   0.00000  Uiso   1.00
C1191  C     0.27301   0.56194   1.12227   0.00000  Uiso   1.00
H1192  H     0.37641   0.66743   0.98888   0.00000  Uiso   1.00
O1193  O     0.51459   0.49821   1.04389   0.00000  Uiso   1.00
C1194  C     0.41223   0.66554   1.15875   0.00000  Uiso   1.00
H1195  H     0.35692   0.50752   1.06865   0.00000  Uiso   1.00
C1196  C     0.23375   0.68441   1.08935   0.00000  Uiso   1.00
N1197  N     0.48084   0.52951   1.09804   0.00000  Uiso   1.00
O1198  O     0.43416   0.67570   1.14157   0.00000  Uiso   1.00
N1199  N     0.42590   0.48443   0.99674   0.00000  Uiso   1.00
C1200  C     0.30197   0.65380   1.09191   0.00000  Uiso   1.00
C1201  C     0.47607   0.51110   1.08398   0.00000  Uiso   1.00
H1202  H     0.35064   0.50482   1.14612   0.00000  Uiso   1.00
C1203  C     0.46450   0.60960   1.06490   0.00000  Uiso   1.00
H1204  H     0.48753   0.55528   1.04357   0.00000  Uiso   1.00
C1205  C     0.43667   0.70609   1.04276   0.00000  Uiso   1.00
C1206  C     0.51603   0.58647   1.03470   0.00000  Uiso   1.00
C1207  C     0.30182   0.48242   1.03143   0.00000  Uiso   1.00
O1208  O     0.32763   0.65307   1.07896   0.00000  Uiso   1.00
H1209  H     0.34376   0.68704   0.99379   0.00000  Uiso   1.00
H1210  H     0.46965   0.57979   1.13921   0.00000  Uiso   1.00
C1211  C     0.29694   0.57968   1.08179   0.00000  Uiso   1.00
C1212  C     0.35654   0.60398   1.22143   0.00000  Uiso   1.00
C1213  C     0.34109   0.51081   1.21670   0.00000  Uiso   1.00
C1214  C     0.30430   0.49965   1.00881   0.00000  Uiso   1.00
C1215  C     0.33998   0.50556   1.05497   0.00000  Uiso   1.00
C1216  C     0.41788   0.64271   1.17487   0.00000  Uiso   1.00
C1217  C     0.50553   0.52751   1.20637   0.00000  Uiso   1.00
C1218  C     0.41836   0.55773   1.01601   0.00000  Uiso   1.00
C1219  C     0.29838   0.53790   1.20649   0.00000  Uiso   1.00
C1220  C     0.39775   0.55665   0.99528   0.00000  Uiso   1.00
C1221  C     0.24319   0.64588   1.00499   0.00000  Uiso   1.00
O1222  O     0.37911   0.69945   1.14319   0.00000  Uiso   1.00
H1223  H     0.23215   0.57551   1.02862   0.00000  Uiso   1.00
C1224  C     0.23386   0.63467   1.22045   0.00000  Uiso   1.00
H1225  H     0.51718   0.64545   1.05430   0.00000  Uiso   1.00
N1226  N     0.37507   0.55420   1.16794   0.00000  Uiso   1.00
C1227  C     0.38542   0.59382   1.21881   0.00000  Uiso   1.00
C1228  C     0.34009   0.68085   1.18280   0.00000  Uiso   1.00
O1229  O     0.32231   0.56955   1.12314   0.00000  Uiso   1.00
N1230  N     0.43423   0.55931   1.03229   0.00000  Uiso   1.00
C1231  C     0.52973   0.58832   0.98682   0.00000  Uiso   1.00
C1232  C     0.53111   0.59929   1.01394   0.00000  Uiso   1.00
C1233  C     0.51074   0.56730   0.97900   0.00000  Uiso   1.00
C1234  C     0.49074   0.71131   1.19837   0.00000  Uiso   1.00
C1235  C     0.53348   0.61496   1.12366   0.00000  Uiso   1.00
H1236  H     0.27325   0.61769   1.21285   0.00000  Uiso   1.00
H1237  H     0.23175   0.62799   1.01268   0.00000  Uiso   1.00
C1238  C     0.44188   0.59395   1.10644   0.00000  Uiso   1.00
C1239  C     0.39258   0.59668   1.08100   0.00000  Uiso   1.00
H1240  H     0.25799   0.47606   1.06376   0.00000  Uiso   1.00
C1241  C     0.51998   0.47828   0.99827   0.00000  Uiso   1.00
C1242  C     0.48896   0.48463   1.04379   0.00000  Uiso   1.00
C1243  C     0.52226   0.58808   1.11153   0.00000  Uiso   1.00
H1244  H     0.52611   0.71194   1.03653   0.00000  Uiso   1.00
C1245  C     0.43884   0.69591   1.09684   0.00000  Uiso   1.00
O1246  O     0.35106   0.63134   1.21333   0.00000  Uiso   1.00
H1247  H     0.43701   0.66090   1.03853   0.00000  Uiso   1.00
C1248  C     0.32541   0.63221   1.13031   0.00000  Uiso   1.00
H1249  H     0.52400   0.54383   1.11901   0.00000  Uiso   1.00
C1250  C     0.49528   0.55601   1.00107   0.00000  Uiso   1.00
C1251  C     0.27493   0.63976   1.13298   0.00000  Uiso   1.00
H1252  H     0.27414   0.55794   1.14539   0.00000  Uiso   1.00
C1253  C     0.42692   0.70568   1.07233   0.00000  Uiso   1.00
C1254  C     0.46733   0.58880   1.11801   0.00000  Uiso   1.00
C1255  C     0.35482   0.67008   0.98281   0.00000  Uiso   1.00
H1256  H     0.34406   0.51601   1.11395   0.00000  Uiso   1.00
C1257  C     0.35134   0.54813   0.98155   0.00000  Uiso   1.00
C1258  C     0.39758   0.70349   1.12133   0.00000  Uiso   1.00
C1259  C     0.53664   0.47674   0.97484   0.00000  Uiso   1.00
C1260  C     0.29956   0.64200   1.11838   0.00000  Uiso   1.00
O1261  O     0.27638   0.62815   1.15878   0.00000  Uiso   1.00
H1262  H     0.51401   0.56038   1.14761   0.00000  Uiso   1.00
H1263  H     0.53060   0.56037   1.07719   0.00000  Uiso   1.00
C1264  C     0.22974   0.64707   1.16524   0.00000  Uiso   1.00
C1265  C     0.48974   0.60314   1.07562   0.00000  Uiso   1.00
O1266  O     0.31983   0.58513   1.06638   0.00000  Uiso   1.00
C1267  C     0.39111   0.50706   1.20975   0.00000  Uiso   1.00
O1268  O     0.41520   0.61034   1.06714   0.00000  Uiso   1.00
C1269  C     0.37161   0.64356   1.19471   0.00000  Uiso   1.00
C1270  C     0.34349   0.58516   1.08072   0.00000  Uiso   1.00
C1271  C     0.34616   0.57595   1.10742   0.00000  Uiso   1.00
H1272  H     0.26429   0.50424   1.17081   0.00000  Uiso   1.00
H1273  H     0.31330   0.51395   1.13358   0.00000  Uiso   1.00
C1274  C     0.25237   0.65297   1.12269   0.00000  Uiso   1.00
C1275  C     0.36733   0.59648   1.06798   0.00000  Uiso   1.00
C1276  C     0.53499   0.58311   1.08310   0.00000  Uiso   1.00
C1277  C     0.24666   0.57412   1.08274   0.00000  Uiso   1.00
C1278  C     0.51782   0.70549   1.19947   0.00000  Uiso   1.00
C1279  C     0.37100   0.54800   1.00266   0.00000  Uiso   1.00
H1280  H     0.34221   0.65154   0.98709   0.00000  Uiso   1.00
C1281  C     0.25528   0.62822   1.20363   0.00000  Uiso   1.00
H1282  H     0.22742   0.57879   1.15520   0.00000  Uiso   1.00
H1283  H     0.37481   0.67324   1.06572   0.00000  Uiso   1.00
H1284  H     0.50496   0.54140   1.18821   0.00000  Uiso   1.00
O1285  O     0.22832   0.65603   1.13846   0.00000  Uiso   1.00
C1286  C     0.37346   0.56343   1.14647   0.00000  Uiso   1.00
O1287  O     0.42068   0.58707   1.12275   0.00000  Uiso   1.00
C1288  C     0.55027   0.64491   1.00451   0.00000  Uiso   1.00
H1289  H     0.38789   0.51063   1.18725   0.00000  Uiso   1.00
C1290  C     0.54811   0.62288   1.02593   0.00000  Uiso   1.00
C1291  C     0.24684   0.53012   1.21533   0.00000  Uiso   1.00
C1292  C     0.29718   0.56919   1.10847   0.00000  Uiso   1.00
C1293  C     0.37105   0.57522   1.12157   0.00000  Uiso   1.00
H1294  H     0.54921   0.72173   1.15078   0.00000  Uiso   1.00
C1295  C     0.39516   0.58604   1.10833   0.00000  Uiso   1.00
N1296  N     0.34610   0.62601   1.14028   0.00000  Uiso   1.00
C1297  C     0.38593   0.67832   1.16146   0.00000  Uiso   1.00
O1298  O     0.47813   0.53337   0.99703   0.00000  Uiso   1.00
H1299  H     0.25993   0.47814   1.19679   0.00000  Uiso   1.00
H1300  H     0.45379   0.67917   1.01160   0.00000  Uiso   1.00
C1301  C     0.33116   0.67478   1.06223   0.00000  Uiso   1.00
C1302  C     0.23098   0.66038   0.98107   0.00000  Uiso   1.00
C1303  C     0.50725   0.66141   1.22218   0.00000  Uiso   1.00
C1304  C     0.25532   0.66851   1.09797   0.00000  Uiso   1.00
C1305  C     0.41192   0.71094   1.02538   0.00000  Uiso   1.00
H1306  H     0.41263   0.51530   1.21304   0.00000  Uiso   1.00
C1307  C     0.39711   0.63149   1.19142   0.00000  Uiso   1.00
H1308  H     0.30365   0.53851   1.18472   0.00000  Uiso   1.00
O1309  O     0.40644   0.60904   1.20714   0.00000  Uiso   1.00
O1310  O     0.42713   0.47873   1.09177   0.00000  Uiso   1.00
C1311  C     0.38684   0.71745   1.09873   0.00000  Uiso   1.00
C1312  C     0.23009   0.50596   1.12928   0.00000  Uiso   1.00
N1313  N     0.31764   0.68978   1.18286   0.00000  Uiso   1.00
C1314  C     0.36732   0.66825   1.18086   0.00000  Uiso   1.00
C1315  C     0.31493   0.71837   1.04030   0.00000  Uiso   1.00
H1316  H     0.45926   0.68594   1.09414   0.00000  Uiso   1.00
H1317  H     0.48445   0.58325   1.20107   0.00000  Uiso   1.00
H1318  H     0.24661   0.50246   1.11416   0.00000  Uiso   1.00
H1319  H     0.24034   0.54031   1.19520   0.00000  Uiso   1.00
O1320  O     0.44265   0.69935   1.20443   0.00000  Uiso   1.00
H1321  H     0.52993   0.65371   0.99824   0.00000  Uiso   1.00
C1322  C     0.35708   0.68361   1.05642   0.00000  Uiso   1.00
N1323  N     0.46572   0.62201   1.17251   0.00000  Uiso   1.00
H1324  H     0.39998   0.69021   1.01922   0.00000  Uiso   1.00
C1325  C     0.27106   0.58166   1.06918   0.00000  Uiso   1.00
C1326  C     0.44037   0.60370   1.07857   0.00000  Uiso   1.00
H1327  H     0.52633   0.63296   1.11175   0.00000  Uiso   1.00
O1328  O     0.36664   0.53747   1.02928   0.00000  Uiso   1.00
C1329  C     0.33471   0.50232   1.13067   0.00000  Uiso   1.00
C1330  C     0.52970   0.49415   1.02098   0.00000  Uiso   1.00
H1331  H     0.29636   0.48930   1.10072   0.00000  Uiso   1.00
C1332  C     0.49163   0.59283   1.10301   0.00000  Uiso   1.00
H1333  H     0.34332   0.51308   1.19302   0.00000  Uiso   1.00
C1334  C     0.30908   0.69293   1.05284   0.00000  Uiso   1.00
C1335  C     0.24696   0.56437   1.10950   0.00000  Uiso   1.00
C1336  C     0.52574   0.68194   1.21435   0.00000  Uiso   1.00
C1337  C     0.44426   0.63096   1.17314   0.00000  Uiso   1.00
C1338  C     0.27949   0.66933   1.08245   0.00000  Uiso   1.00
C1339  C     0.49781   0.56589   1.02789   0.00000  Uiso   1.00
C1340  C     0.36265   0.70887   1.04451   0.00000  Uiso   1.00
C1341  C     0.53272   0.62951   1.05371   0.00000  Uiso   1.00
H1342  H     0.24847   0.69996   0.99203   0.00000  Uiso   1.00
H1343  H     0.29408   0.48834   1.18363   0.00000  Uiso   1.00
O1344  O     0.50951   0.48834   1.17557   0.00000  Uiso   1.00
C1345  C     0.36625   0.60649   1.04103   0.00000  Uiso   1.00
C1346  C     0.47130   0.69212   1.20589   0.00000  Uiso   1.00
C1347  C     0.52846   0.56426   1.13062   0.00000  Uiso   1.00
C1348  C     0.27422   0.49592   1.18932   0.00000  Uiso   1.00
O1349  O     0.28254   0.68464   1.05827   0.00000  Uiso   1.00
H1350  H     0.46436   0.61573   1.04303   0.00000  Uiso   1.00
C1351  C     0.31869   0.48486   1.05506   0.00000  Uiso   1.00
C1352  C     0.42456   0.69242   1.12098   0.00000  Uiso   1.00
C1353  C     0.51924   0.60164   1.06195   0.00000  Uiso   1.00
H1354  H     0.47039   0.67595   1.04421   0.00000  Uiso   1.00
C1355  C     0.50773   0.49893   1.20204   0.00000  Uiso   1.00
N1356  N     0.36587   0.61517   1.01921   0.00000  Uiso   1.00
O1357  O     0.32482   0.53551   0.98424   0.00000  Uiso   1.00
C1358  C     0.34454   0.52097   1.03098   0.00000  Uiso   1.00
H1359  H     0.28957   0.49751   0.99308   0.00000  Uiso   1.00
C1360  C     0.47057   0.48895   1.06626   0.00000  Uiso   1.00
H1361  H     0.28983   0.55778   1.21332   0.00000  Uiso   1.00
C1362  C     0.32448   0.52010   1.00795   0.00000  Uiso   1.00
N1363  N     0.51228   0.47565   1.10221   0.00000  Uiso   1.00
H1364  H     0.26411   0.63883   1.00045   0.00000  Uiso   1.00
H1365  H     0.52710   0.61719   1.14557   0.00000  Uiso   1.00
C1366  C     0.27541   0.51724   1.21251   0.00000  Uiso   1.00
H1367  H     0.24431   0.65977   1.02285   0.00000  Uiso   1.00
H1368  H     0.54899   0.63711   1.06784   0.00000  Uiso   1.00
C1369  C     0.44586   0.47516   1.06719   0.00000  Uiso   1.00
H1370  H     0.28323   0.72260   1.14086   0.00000  Uiso   1.00
H1371  H     0.23059   0.51415   1.21741   0.00000  Uiso   1.00
H1372  H     0.55089   0.56117   1.13513   0.00000  Uiso   1.00
C1373  C     0.40120   0.71696   1.07358   0.00000  Uiso   1.00
H1374  H     0.38524   0.48306   1.12784   0.00000  Uiso   1.00
H1375  H     0.45671   0.56906   1.22040   0.00000  Uiso   1.00
H1376  H     0.39372   0.48457   1.21270   0.00000  Uiso   1.00
C1377  C     0.47620   0.58084   1.22106   0.00000  Uiso   1.00
C1378  C     0.47911   0.66695   1.21736   0.00000  Uiso   1.00
C1379  C     0.43962   0.49524   0.98076   0.00000  Uiso   1.00
H1380  H     0.24621   0.48212   1.03014   0.00000  Uiso   1.00
C1381  C     0.24917   0.68470   0.97454   0.00000  Uiso   1.00
H1382  H     0.22829   0.54266   1.04123   0.00000  Uiso   1.00
H1383  H     0.55537   0.61736   1.12186   0.00000  Uiso   1.00
H1384  H     0.33388   0.48961   1.22112   0.00000  Uiso   1.00
H1385  H     0.47097   0.72296   1.02084   0.00000  Uiso   1.00
C1386  C     0.32713   0.87330   0.25947   0.00000  Uiso   1.00
H1387  H     0.37793   0.91438   0.41099   0.00000  Uiso   1.00
C1388  C     0.44243   0.79837   0.23297   0.00000  Uiso   1.00
C1389  C     0.47292   0.76566   0.29225   0.00000  Uiso   1.00
H1390  H     0.38247   0.92487   0.27575   0.00000  Uiso   1.00
H1391  H     0.43064   0.75912   0.40918   0.00000  Uiso   1.00
H1392  H     0.48737   0.91663   0.26737   0.00000  Uiso   1.00
C1393  C     0.51939   0.79655   0.45268   0.00000  Uiso   1.00
O1394  O     0.28412   0.78575   0.28129   0.00000  Uiso   1.00
H1395  H     0.29656   0.74027   0.33152   0.00000  Uiso   1.00
C1396  C     0.46713   0.91809   0.25465   0.00000  Uiso   1.00
H1397  H     0.34015   0.96147   0.35312   0.00000  Uiso   1.00
H1398  H     0.29837   0.91120   0.36020   0.00000  Uiso   1.00
H1399  H     0.27163   0.85030   0.34820   0.00000  Uiso   1.00
C1400  C     0.42878   0.88652   0.26565   0.00000  Uiso   1.00
C1401  C     0.50878   0.83160   0.38661   0.00000  Uiso   1.00
O1402  O     0.33255   0.89634   0.27632   0.00000  Uiso   1.00
C1403  C     0.33479   0.84666   0.26844   0.00000  Uiso   1.00
H1404  H     0.42092   0.80684   0.42240   0.00000  Uiso   1.00
H1405  H     0.29900   0.75737   0.36477   0.00000  Uiso   1.00
C1406  C     0.50322   0.73680   0.38099   0.00000  Uiso   1.00
O1407  O     0.41012   0.80448   0.27136   0.00000  Uiso   1.00
C1408  C     0.42837   0.78693   0.28533   0.00000  Uiso   1.00
H1409  H     0.42127   0.91568   0.31276   0.00000  Uiso   1.00
C1410  C     0.34415   0.89138   0.30146   0.00000  Uiso   1.00
H1411  H     0.41183   0.88772   0.39832   0.00000  Uiso   1.00
C1412  C     0.49323   0.85407   0.39386   0.00000  Uiso   1.00
C1413  C     0.33150   0.80707   0.41726   0.00000  Uiso   1.00
O1414  O     0.34692   0.84186   0.29340   0.00000  Uiso   1.00
C1415  C     0.39976   0.84574   0.41363   0.00000  Uiso   1.00
C1416  C     0.31498   0.82634   0.40320   0.00000  Uiso   1.00
C1417  C     0.49592   0.75326   0.27971   0.00000  Uiso   1.00
C1418  C     0.27455   0.81078   0.29196   0.00000  Uiso   1.00
H1419  H     0.33883   0.74404   0.39869   0.00000  Uiso   1.00
H1420  H     0.25398   0.95953   0.37730   0.00000  Uiso   1.00
C1421  C     0.44157   0.77032   0.33041   0.00000  Uiso   1.00
C1422  C     0.48758   0.85808   0.42219   0.00000  Uiso   1.00
C1423  C     0.55362   0.80932   0.32771   0.00000  Uiso   1.00
H1424  H     0.31879   0.80989   0.33299   0.00000  Uiso   1.00
H1425  H     0.29818   0.83947   0.46631   0.00000  Uiso   1.00
H1426  H     0.39416   0.87346   0.45201   0.00000  Uiso   1.00
C1427  C     0.25072   0.78776   0.39558   0.00000  Uiso   1.00
C1428  C     0.39705   0.78927   0.32392   0.00000  Uiso   1.00
H1429  H     0.23541   0.96257   0.34759   0.00000  Uiso   1.00
N1430  N     0.51499   0.74196   0.27112   0.00000  Uiso   1.00
H1431  H     0.36559   0.83745   0.34329   0.00000  Uiso   1.00
C1432  C     0.49339   0.83688   0.44192   0.00000  Uiso   1.00
C1433  C     0.25344   0.74445   0.41893   0.00000  Uiso   1.00
C1434  C     0.48164   0.88869   0.45720   0.00000  Uiso   1.00
H1435  H     0.46282   0.78186   0.45917   0.00000  Uiso   1.00
O1436  O     0.45952   0.78022   0.24625   0.00000  Uiso   1.00
H1437  H     0.25347   0.81875   0.25469   0.00000  Uiso   1.00
O1438  O     0.32160   0.78125   0.42599   0.00000  Uiso   1.00
H1439  H     0.27423   0.88832   0.37834   0.00000  Uiso   1.00
C1440  C     0.24885   0.85283   0.28277   0.00000  Uiso   1.00
H1441  H     0.34542   0.96610   0.39113   0.00000  Uiso   1.00
H1442  H     0.55023   0.73479   0.45231   0.00000  Uiso   1.00
C1443  C     0.42291   0.78278   0.31283   0.00000  Uiso   1.00
H1444  H     0.31846   0.88462   0.45166   0.00000  Uiso   1.00
C1445  C     0.24614   0.89035   0.24786   0.00000  Uiso   1.00
C1446  C     0.28172   0.75100   0.42510   0.00000  Uiso   1.00
H1447  H     0.31280   0.86450   0.38271   0.00000  Uiso   1.00
H1448  H     0.27136   0.77496   0.27196   0.00000  Uiso   1.00
N1449  N     0.34618   0.77546   0.26902   0.00000  Uiso   1.00
N1450  N     0.23315   0.96446   0.43666   0.00000  Uiso   1.00
C1451  C     0.55442   0.94897   0.35365   0.00000  Uiso   1.00
C1452  C     0.39232   0.94037   0.26410   0.00000  Uiso   1.00
C1453  C     0.41139   0.94467   0.45869   0.00000  Uiso   1.00
C1454  C     0.26981   0.84434   0.32721   0.00000  Uiso   1.00
C1455  C     0.51056   0.81542   0.43388   0.00000  Uiso   1.00
H1456  H     0.32121   0.94306   0.37882   0.00000  Uiso   1.00
C1457  C     0.45831   0.75662   0.37546   0.00000  Uiso   1.00
H1458  H     0.27867   0.90576   0.31585   0.00000  Uiso   1.00
C1459  C     0.31315   0.87509   0.23359   0.00000  Uiso   1.00
O1460  O     0.47478   0.88247   0.42988   0.00000  Uiso   1.00
O1461  O     0.43730   0.76948   0.35967   0.00000  Uiso   1.00
C1462  C     0.36212   0.90752   0.39593   0.00000  Uiso   1.00
H1463  H     0.53508   0.94273   0.25427   0.00000  Uiso   1.00
O1464  O     0.53521   0.95958   0.37280   0.00000  Uiso   1.00
C1465  C     0.52005   0.81383   0.40678   0.00000  Uiso   1.00
C1466  C     0.23804   0.88669   0.31729   0.00000  Uiso   1.00
C1467  C     0.32678   0.85070   0.39503   0.00000  Uiso   1.00
C1468  C     0.46562   0.94912   0.24395   0.00000  Uiso   1.00
C1469  C     0.48397   0.74804   0.36347   0.00000  Uiso   1.00
C1470  C     0.35050   0.86488   0.30968   0.00000  Uiso   1.00
C1471  C     0.41889   0.81171   0.24540   0.00000  Uiso   1.00
H1472  H     0.34114   0.93235   0.31582   0.00000  Uiso   1.00
C1473  C     0.27820   0.90966   0.37134   0.00000  Uiso   1.00
H1474  H     0.54019   0.97165   0.27477   0.00000  Uiso   1.00
C1475  C     0.35416   0.85496   0.39773   0.00000  Uiso   1.00
C1476  C     0.43951   0.91463   0.27096   0.00000  Uiso   1.00
C1477  C     0.27856   0.79414   0.40204   0.00000  Uiso   1.00
C1478  C     0.25687   0.91156   0.32025   0.00000  Uiso   1.00
C1479  C     0.41964   0.82270   0.40670   0.00000  Uiso   1.00
C1480  C     0.34644   0.91230   0.32020   0.00000  Uiso   1.00
C1481  C     0.42055   0.93708   0.26069   0.00000  Uiso   1.00
C1482  C     0.39044   0.94088   0.36534   0.00000  Uiso   1.00
H1483  H     0.39108   0.94753   0.34343   0.00000  Uiso   1.00
C1484  C     0.35624   0.90730   0.34732   0.00000  Uiso   1.00
C1485  C     0.36422   0.88065   0.35462   0.00000  Uiso   1.00
C1486  C     0.36044   0.85902   0.33618   0.00000  Uiso   1.00
C1487  C     0.45378   0.77641   0.27403   0.00000  Uiso   1.00
C1488  C     0.37034   0.87878   0.38536   0.00000  Uiso   1.00
C1489  C     0.29442   0.77577   0.41860   0.00000  Uiso   1.00
C1490  C     0.46923   0.76309   0.31987   0.00000  Uiso   1.00
H1491  H     0.40578   0.92498   0.44991   0.00000  Uiso   1.00
H1492  H     0.41232   0.86318   0.37336   0.00000  Uiso   1.00
C1493  C     0.25880   0.82726   0.27341   0.00000  Uiso   1.00
C1494  C     0.36302   0.92695   0.37027   0.00000  Uiso   1.00
C1495  C     0.44091   0.92047   0.30159   0.00000  Uiso   1.00
H1496  H     0.44847   0.94082   0.30442   0.00000  Uiso   1.00
H1497  H     0.47696   0.93202   0.44931   0.00000  Uiso   1.00
C1498  C     0.34148   0.95094   0.37350   0.00000  Uiso   1.00
H1499  H     0.52413   0.73120   0.37451   0.00000  Uiso   1.00
H1500  H     0.34093   0.90872   0.40366   0.00000  Uiso   1.00
H1501  H     0.46812   0.90387   0.23822   0.00000  Uiso   1.00
C1502  C     0.40036   0.86878   0.39218   0.00000  Uiso   1.00
O1503  O     0.54031   0.79350   0.40098   0.00000  Uiso   1.00
C1504  C     0.35957   0.81067   0.42110   0.00000  Uiso   1.00
C1505  C     0.23645   0.80367   0.37576   0.00000  Uiso   1.00
H1506  H     0.44727   0.87256   0.27118   0.00000  Uiso   1.00
H1507  H     0.42307   0.95677   0.44043   0.00000  Uiso   1.00
C1508  C     0.45186   0.75207   0.40308   0.00000  Uiso   1.00
C1509  C     0.53632   0.96610   0.25366   0.00000  Uiso   1.00
O1510  O     0.34836   0.96472   0.25921   0.00000  Uiso   1.00
N1511  N     0.23573   0.76385   0.26829   0.00000  Uiso   1.00
O1512  O     0.51857   0.82952   0.35842   0.00000  Uiso   1.00
N1513  N     0.48885   0.89274   0.35909   0.00000  Uiso   1.00
C1514  C     0.22623   0.90910   0.36009   0.00000  Uiso   1.00
C1515  C     0.49735   0.73247   0.40824   0.00000  Uiso   1.00
C1516  C     0.25463   0.92132   0.35144   0.00000  Uiso   1.00
H1517  H     0.37319   0.79378   0.43198   0.00000  Uiso   1.00
C1518  C     0.33050   0.82285   0.25286   0.00000  Uiso   1.00
H1519  H     0.41864   0.81359   0.38563   0.00000  Uiso   1.00
N1520  N     0.37582   0.79489   0.33317   0.00000  Uiso   1.00
C1521  C     0.49085   0.87521   0.37452   0.00000  Uiso   1.00
C1522  C     0.25503   0.95375   0.35519   0.00000  Uiso   1.00
H1523  H     0.25097   0.92878   0.30569   0.00000  Uiso   1.00
H1524  H     0.27914   0.92123   0.38934   0.00000  Uiso   1.00
N1525  N     0.47916   0.96266   0.41239   0.00000  Uiso   1.00
C1526  C     0.37067   0.83536   0.41163   0.00000  Uiso   1.00
C1527  C     0.33953   0.79733   0.26182   0.00000  Uiso   1.00
O1528  O     0.30075   0.80393   0.33494   0.00000  Uiso   1.00
O1529  O     0.48951   0.75153   0.33690   0.00000  Uiso   1.00
H1530  H     0.54457   0.86612   0.44552   0.00000  Uiso   1.00
H1531  H     0.35194   0.73802   0.31471   0.00000  Uiso   1.00
C1532  C     0.29874   0.73713   0.35554   0.00000  Uiso   1.00
C1533  C     0.36536   0.95854   0.44460   0.00000  Uiso   1.00
H1534  H     0.44191   0.83089   0.40717   0.00000  Uiso   1.00
O1535  O     0.28885   0.81981   0.39341   0.00000  Uiso   1.00
H1536  H     0.50483   0.73303   0.47087   0.00000  Uiso   1.00
H1537  H     0.40908   0.88001   0.27504   0.00000  Uiso   1.00
H1538  H     0.40715   0.92448   0.36677   0.00000  Uiso   1.00
C1539  C     0.26361   0.90112   0.47171   0.00000  Uiso   1.00
C1540  C     0.40793   0.85751   0.44240   0.00000  Uiso   1.00
C1541  C     0.23826   0.76395   0.40533   0.00000  Uiso   1.00
H1542  H     0.35693   0.75102   0.36807   0.00000  Uiso   1.00
C1543  C     0.48284   0.91618   0.46506   0.00000  Uiso   1.00
H1544  H     0.42870   0.86852   0.44142   0.00000  Uiso   1.00
H1545  H     0.37451   0.96365   0.42450   0.00000  Uiso   1.00
H1546  H     0.27322   0.96248   0.34621   0.00000  Uiso   1.00
C1547  C     0.28296   0.82129   0.31817   0.00000  Uiso   1.00
C1548  C     0.40465   0.83232   0.23196   0.00000  Uiso   1.00
C1549  C     0.37756   0.96333   0.25357   0.00000  Uiso   1.00
C1550  C     0.55279   0.79469   0.37559   0.00000  Uiso   1.00
N1551  N     0.27918   0.96334   0.28588   0.00000  Uiso   1.00
H1552  H     0.45651   0.90695   0.30987   0.00000  Uiso   1.00
H1553  H     0.35786   0.93806   0.44676   0.00000  Uiso   1.00
C1554  C     0.25322   0.86032   0.31041   0.00000  Uiso   1.00
H1555  H     0.28185   0.72416   0.36226   0.00000  Uiso   1.00
H1556  H     0.25415   0.87966   0.22964   0.00000  Uiso   1.00
C1557  C     0.45112   0.74106   0.46676   0.00000  Uiso   1.00
C1558  C     0.47155   0.73745   0.41907   0.00000  Uiso   1.00
H1559  H     0.42538   0.88325   0.24372   0.00000  Uiso   1.00
H1560  H     0.27155   0.85206   0.44516   0.00000  Uiso   1.00
C1561  C     0.54220   0.81124   0.35396   0.00000  Uiso   1.00
C1562  C     0.29853   0.73184   0.43819   0.00000  Uiso   1.00
H1563  H     0.49210   0.95544   0.28048   0.00000  Uiso   1.00
H1564  H     0.26433   0.89819   0.25803   0.00000  Uiso   1.00
H1565  H     0.26161   0.90715   0.45000   0.00000  Uiso   1.00
H1566  H     0.54248   0.82005   0.31071   0.00000  Uiso   1.00
C1567  C     0.43493   0.95624   0.24467   0.00000  Uiso   1.00
H1568  H     0.38827   0.84357   0.24259   0.00000  Uiso   1.00
H1569  H     0.39334   0.95828   0.37956   0.00000  Uiso   1.00
H1570  H     0.23546   0.90739   0.23534   0.00000  Uiso   1.00
C1571  C     0.31598   0.82411   0.22802   0.00000  Uiso   1.00
H1572  H     0.40809   0.84244   0.46057   0.00000  Uiso   1.00
C1573  C     0.23067   0.87361   0.26852   0.00000  Uiso   1.00
H1574  H     0.54756   0.74567   0.41780   0.00000  Uiso   1.00
C1575  C     0.27792   0.84957   0.46645   0.00000  Uiso   1.00
C1576  C     0.54801   0.95361   0.46896   0.00000  Uiso   1.00
C1577  C     0.54628   0.72837   0.43159   0.00000  Uiso   1.00
H1578  H     0.55191   0.73153   0.23665   0.00000  Uiso   1.00
C1579  C     0.40014   0.72930   0.22799   0.00000  Uiso   1.00
C1580  C     0.38543   0.96107   0.46820   0.00000  Uiso   1.00
N1581  N     0.52527   0.77977   0.46784   0.00000  Uiso   1.00
O1582  O     0.48974   0.84172   0.46968   0.00000  Uiso   1.00
C1583  C     0.48559   0.96611   0.26168   0.00000  Uiso   1.00
N1584  N     0.22352   0.81629   0.35932   0.00000  Uiso   1.00
C1585  C     0.34749   0.73480   0.38080   0.00000  Uiso   1.00
H1586  H     0.22832   0.84763   0.45324   0.00000  Uiso   1.00
C1587  C     0.46682   0.72341   0.44650   0.00000  Uiso   1.00
H1588  H     0.34764   0.97236   0.44727   0.00000  Uiso   1.00
C1589  C     0.42254   0.91720   0.59917   0.00000  Uiso   1.00
O1590  O     0.42023   0.88155   0.56448   0.00000  Uiso   1.00
C1591  C     0.47552   0.73045   0.71313   0.00000  Uiso   1.00
C1592  C     0.53573   0.91655   0.67111   0.00000  Uiso   1.00
C1593  C     0.28119   0.76283   0.50156   0.00000  Uiso   1.00
O1594  O     0.30521   0.74987   0.50917   0.00000  Uiso   1.00
C1595  C     0.37294   0.94839   0.49441   0.00000  Uiso   1.00
C1596  C     0.49160   0.77029   0.59641   0.00000  Uiso   1.00
H1597  H     0.51279   0.96491   0.54051   0.00000  Uiso   1.00
C1598  C     0.49255   0.92496   0.48953   0.00000  Uiso   1.00
H1599  H     0.30120   0.80245   0.49806   0.00000  Uiso   1.00
C1600  C     0.37027   0.92080   0.50121   0.00000  Uiso   1.00
C1601  C     0.25916   0.85786   0.56310   0.00000  Uiso   1.00
C1602  C     0.27480   0.88358   0.55859   0.00000  Uiso   1.00
H1603  H     0.29519   0.90866   0.52677   0.00000  Uiso   1.00
H1604  H     0.42167   0.93367   0.58323   0.00000  Uiso   1.00
O1605  O     0.46731   0.80641   0.62242   0.00000  Uiso   1.00
C1606  C     0.22742   0.75876   0.59234   0.00000  Uiso   1.00
C1607  C     0.34375   0.80145   0.62170   0.00000  Uiso   1.00
C1608  C     0.48783   0.86904   0.47757   0.00000  Uiso   1.00
C1609  C     0.23286   0.73490   0.63532   0.00000  Uiso   1.00
C1610  C     0.55438   0.87219   0.63869   0.00000  Uiso   1.00
C1611  C     0.28187   0.79111   0.49487   0.00000  Uiso   1.00
H1612  H     0.49982   0.86032   0.51818   0.00000  Uiso   1.00
C1613  C     0.49474   0.84658   0.59416   0.00000  Uiso   1.00
C1614  C     0.35393   0.73706   0.69715   0.00000  Uiso   1.00
C1615  C     0.52294   0.90417   0.55532   0.00000  Uiso   1.00
O1616  O     0.24815   0.85110   0.58772   0.00000  Uiso   1.00
H1617  H     0.32919   0.87533   0.48343   0.00000  Uiso   1.00
C1618  C     0.51448   0.80817   0.70100   0.00000  Uiso   1.00
C1619  C     0.42816   0.73314   0.51080   0.00000  Uiso   1.00
C1620  C     0.35175   0.84768   0.56321   0.00000  Uiso   1.00
C1621  C     0.46993   0.74706   0.68528   0.00000  Uiso   1.00
C1622  C     0.47631   0.92351   0.55052   0.00000  Uiso   1.00
C1623  C     0.26143   0.84893   0.51411   0.00000  Uiso   1.00
H1624  H     0.47366   0.95777   0.64829   0.00000  Uiso   1.00
C1625  C     0.47144   0.75777   0.63784   0.00000  Uiso   1.00
C1626  C     0.41425   0.95272   0.66519   0.00000  Uiso   1.00
H1627  H     0.46628   0.94645   0.55087   0.00000  Uiso   1.00
C1628  C     0.23804   0.76896   0.56730   0.00000  Uiso   1.00
C1629  C     0.49646   0.90595   0.51049   0.00000  Uiso   1.00
H1630  H     0.51683   0.79288   0.68428   0.00000  Uiso   1.00
C1631  C     0.22571   0.92553   0.62618   0.00000  Uiso   1.00
C1632  C     0.42922   0.76020   0.51800   0.00000  Uiso   1.00
C1633  C     0.25369   0.84035   0.54008   0.00000  Uiso   1.00
C1634  C     0.22666   0.84137   0.47480   0.00000  Uiso   1.00
C1635  C     0.35918   0.93020   0.54881   0.00000  Uiso   1.00
C1636  C     0.41937   0.83400   0.58190   0.00000  Uiso   1.00
C1637  C     0.25863   0.89886   0.59989   0.00000  Uiso   1.00
C1638  C     0.51548   0.94698   0.52669   0.00000  Uiso   1.00
O1639  O     0.53137   0.83318   0.55313   0.00000  Uiso   1.00
H1640  H     0.37668   0.90528   0.48484   0.00000  Uiso   1.00
C1641  C     0.28069   0.86373   0.68044   0.00000  Uiso   1.00
H1642  H     0.41438   0.86502   0.65860   0.00000  Uiso   1.00
N1643  N     0.43225   0.87728   0.49571   0.00000  Uiso   1.00
H1644  H     0.36663   0.72683   0.58724   0.00000  Uiso   1.00
C1645  C     0.25781   0.80473   0.48781   0.00000  Uiso   1.00
O1646  O     0.23600   0.85814   0.71546   0.00000  Uiso   1.00
C1647  C     0.46420   0.78657   0.64372   0.00000  Uiso   1.00
C1648  C     0.54739   0.82623   0.53107   0.00000  Uiso   1.00
C1649  C     0.41774   0.87892   0.64087   0.00000  Uiso   1.00
H1650  H     0.45392   0.89952   0.69115   0.00000  Uiso   1.00
C1651  C     0.41800   0.86943   0.61325   0.00000  Uiso   1.00
O1652  O     0.35360   0.92243   0.57518   0.00000  Uiso   1.00
O1653  O     0.43578   0.80624   0.50247   0.00000  Uiso   1.00
C1654  C     0.39879   0.91399   0.69635   0.00000  Uiso   1.00
C1655  C     0.42063   0.92222   0.67456   0.00000  Uiso   1.00
C1656  C     0.48606   0.79818   0.60153   0.00000  Uiso   1.00
H1657  H     0.39159   0.95635   0.66350   0.00000  Uiso   1.00
O1658  O     0.27917   0.90187   0.57965   0.00000  Uiso   1.00
N1659  N     0.35796   0.81301   0.52500   0.00000  Uiso   1.00
C1660  C     0.35227   0.89467   0.57970   0.00000  Uiso   1.00
C1661  C     0.36367   0.91094   0.52736   0.00000  Uiso   1.00
O1662  O     0.42290   0.76704   0.54479   0.00000  Uiso   1.00
C1663  C     0.53205   0.88940   0.68029   0.00000  Uiso   1.00
C1664  C     0.33956   0.82093   0.64364   0.00000  Uiso   1.00
N1665  N     0.49052   0.86961   0.59993   0.00000  Uiso   1.00
C1666  C     0.41850   0.80609   0.57624   0.00000  Uiso   1.00
N1667  N     0.27871   0.85790   0.65644   0.00000  Uiso   1.00
C1668  C     0.54872   0.92162   0.64660   0.00000  Uiso   1.00
C1669  C     0.34204   0.78251   0.67659   0.00000  Uiso   1.00
C1670  C     0.25543   0.83607   0.48616   0.00000  Uiso   1.00
H1671  H     0.36762   0.90521   0.66639   0.00000  Uiso   1.00
C1672  C     0.27880   0.87155   0.51080   0.00000  Uiso   1.00
O1673  O     0.36183   0.88273   0.53106   0.00000  Uiso   1.00
C1674  C     0.52413   0.78437   0.56161   0.00000  Uiso   1.00
C1675  C     0.49343   0.80340   0.71948   0.00000  Uiso   1.00
C1676  C     0.50381   0.92024   0.53711   0.00000  Uiso   1.00
O1677  O     0.34590   0.80908   0.59384   0.00000  Uiso   1.00
H1678  H     0.42471   0.93953   0.47606   0.00000  Uiso   1.00
C1679  C     0.50045   0.81864   0.58848   0.00000  Uiso   1.00
C1680  C     0.35472   0.87531   0.55894   0.00000  Uiso   1.00
O1681  O     0.41502   0.84194   0.60965   0.00000  Uiso   1.00
C1682  C     0.41648   0.78661   0.59781   0.00000  Uiso   1.00
C1683  C     0.42734   0.84236   0.53421   0.00000  Uiso   1.00
C1684  C     0.36780   0.96746   0.51499   0.00000  Uiso   1.00
C1685  C     0.34567   0.76686   0.70557   0.00000  Uiso   1.00
N1686  N     0.52025   0.95689   0.70103   0.00000  Uiso   1.00
O1687  O     0.32925   0.88511   0.69920   0.00000  Uiso   1.00
C1688  C     0.35500   0.82872   0.54191   0.00000  Uiso   1.00
O1689  O     0.52002   0.88496   0.70630   0.00000  Uiso   1.00
C1690  C     0.33659   0.90518   0.62601   0.00000  Uiso   1.00
C1691  C     0.43003   0.86168   0.51338   0.00000  Uiso   1.00
C1692  C     0.34943   0.77372   0.62855   0.00000  Uiso   1.00
C1693  C     0.24411   0.87457   0.60428   0.00000  Uiso   1.00
H1694  H     0.35441   0.75906   0.61291   0.00000  Uiso   1.00
H1695  H     0.47821   0.92034   0.57166   0.00000  Uiso   1.00
O1696  O     0.33830   0.84877   0.64008   0.00000  Uiso   1.00
C1697  C     0.34387   0.88602   0.60543   0.00000  Uiso   1.00
H1698  H     0.51333   0.88330   0.55761   0.00000  Uiso   1.00
C1699  C     0.42249   0.85299   0.55983   0.00000  Uiso   1.00
C1700  C     0.45966   0.79345   0.67122   0.00000  Uiso   1.00
C1701  C     0.34242   0.85749   0.61170   0.00000  Uiso   1.00
C1702  C     0.42460   0.92678   0.62610   0.00000  Uiso   1.00
O1703  O     0.26636   0.72712   0.59569   0.00000  Uiso   1.00
H1704  H     0.54356   0.89978   0.54650   0.00000  Uiso   1.00
C1705  C     0.33837   0.80946   0.67009   0.00000  Uiso   1.00
N1706  N     0.41589   0.77110   0.61507   0.00000  Uiso   1.00
C1707  C     0.49443   0.87773   0.50409   0.00000  Uiso   1.00
H1708  H     0.45937   0.91140   0.54001   0.00000  Uiso   1.00
C1709  C     0.42151   0.90751   0.64651   0.00000  Uiso   1.00
C1710  C     0.23279   0.76491   0.48801   0.00000  Uiso   1.00
N1711  N     0.33087   0.92187   0.64275   0.00000  Uiso   1.00
C1712  C     0.25634   0.74940   0.49737   0.00000  Uiso   1.00
C1713  C     0.42020   0.88952   0.59225   0.00000  Uiso   1.00
C1714  C     0.51877   0.81232   0.56804   0.00000  Uiso   1.00
C1715  C     0.34736   0.76422   0.65567   0.00000  Uiso   1.00
C1716  C     0.42780   0.81462   0.52842   0.00000  Uiso   1.00
C1717  C     0.25028   0.92345   0.61249   0.00000  Uiso   1.00
H1718  H     0.23744   0.82349   0.54165   0.00000  Uiso   1.00
O1719  O     0.55300   0.94895   0.64020   0.00000  Uiso   1.00
C1720  C     0.34677   0.83796   0.59035   0.00000  Uiso   1.00
C1721  C     0.28421   0.88928   0.53213   0.00000  Uiso   1.00
H1722  H     0.38913   0.73315   0.64111   0.00000  Uiso   1.00
N1723  N     0.24606   0.77790   0.54728   0.00000  Uiso   1.00
C1724  C     0.42800   0.95560   0.63706   0.00000  Uiso   1.00
H1725  H     0.45975   0.93613   0.68649   0.00000  Uiso   1.00
C1726  C     0.51445   0.85746   0.71263   0.00000  Uiso   1.00
C1727  C     0.52381   0.83541   0.69522   0.00000  Uiso   1.00
C1728  C     0.51047   0.76400   0.57687   0.00000  Uiso   1.00
C1729  C     0.45694   0.96776   0.63500   0.00000  Uiso   1.00
N1730  N     0.27306   0.96712   0.59566   0.00000  Uiso   1.00
C1731  C     0.35102   0.73305   0.66526   0.00000  Uiso   1.00
H1732  H     0.52331   0.91303   0.57670   0.00000  Uiso   1.00
H1733  H     0.45787   0.81575   0.67492   0.00000  Uiso   1.00
C1734  C     0.43907   0.77834   0.49844   0.00000  Uiso   1.00
C1735  C     0.44490   0.92029   0.69327   0.00000  Uiso   1.00
O1736  O     0.54260   0.77690   0.54085   0.00000  Uiso   1.00
C1737  C     0.52296   0.96446   0.47798   0.00000  Uiso   1.00
H1738  H     0.38858   0.78304   0.70728   0.00000  Uiso   1.00
C1739  C     0.52697   0.93882   0.68724   0.00000  Uiso   1.00
C1740  C     0.35503   0.89676   0.70860   0.00000  Uiso   1.00
C1741  C     0.28345   0.87050   0.70886   0.00000  Uiso   1.00
C1742  C     0.23338   0.79248   0.48141   0.00000  Uiso   1.00
O1743  O     0.53820   0.83913   0.67103   0.00000  Uiso   1.00
C1744  C     0.54148   0.86701   0.66305   0.00000  Uiso   1.00
C1745  C     0.47200   0.73770   0.65849   0.00000  Uiso   1.00
C1746  C     0.35961   0.95870   0.54060   0.00000  Uiso   1.00
C1747  C     0.42126   0.79529   0.54928   0.00000  Uiso   1.00
C1748  C     0.51184   0.73682   0.56607   0.00000  Uiso   1.00
C1749  C     0.46464   0.77486   0.69164   0.00000  Uiso   1.00
C1750  C     0.37409   0.90389   0.68839   0.00000  Uiso   1.00
C1751  C     0.26290   0.94771   0.60354   0.00000  Uiso   1.00
C1752  C     0.36953   0.78250   0.71995   0.00000  Uiso   1.00
C1753  C     0.24146   0.73890   0.60724   0.00000  Uiso   1.00
H1754  H     0.33346   0.82540   0.68584   0.00000  Uiso   1.00
C1755  C     0.45103   0.76813   0.47442   0.00000  Uiso   1.00
H1756  H     0.54481   0.88623   0.47425   0.00000  Uiso   1.00
C1757  C     0.31944   0.76900   0.72195   0.00000  Uiso   1.00
O1758  O     0.47989   0.74954   0.61200   0.00000  Uiso   1.00
H1759  H     0.30196   0.76082   0.71104   0.00000  Uiso   1.00
C1760  C     0.31276   0.88696   0.47348   0.00000  Uiso   1.00
H1761  H     0.23040   0.94740   0.55801   0.00000  Uiso   1.00
H1762  H     0.53788   0.94438   0.52387   0.00000  Uiso   1.00
H1763  H     0.42062   0.96942   0.67879   0.00000  Uiso   1.00
C1764  C     0.28315   0.87763   0.47991   0.00000  Uiso   1.00
C1765  C     0.47291   0.77978   0.72197   0.00000  Uiso   1.00
H1766  H     0.54966   0.86817   0.51729   0.00000  Uiso   1.00
C1767  C     0.50207   0.95231   0.49975   0.00000  Uiso   1.00
C1768  C     0.30905   0.88023   0.71879   0.00000  Uiso   1.00
H1769  H     0.29281   0.72734   0.68577   0.00000  Uiso   1.00
H1770  H     0.46161   0.96647   0.49103   0.00000  Uiso   1.00
N1771  N     0.36883   0.72964   0.53194   0.00000  Uiso   1.00
H1772  H     0.37315   0.73017   0.70480   0.00000  Uiso   1.00
H1773  H     0.27307   0.92081   0.47918   0.00000  Uiso   1.00
H1774  H     0.35421   0.96791   0.69035   0.00000  Uiso   1.00
H1775  H     0.31726   0.90791   0.48063   0.00000  Uiso   1.00
H1776  H     0.46536   0.96400   0.61397   0.00000  Uiso   1.00
C1777  C     0.55535   0.79874   0.52580   0.00000  Uiso   1.00
H1778  H     0.24145   0.89851   0.47713   0.00000  Uiso   1.00
H1779  H     0.41802   0.97163   0.72140   0.00000  Uiso   1.00
H1780  H     0.38801   0.97276   0.61694   0.00000  Uiso   1.00
C1781  C     0.43619   0.72357   0.48463   0.00000  Uiso   1.00
H1782  H     0.43003   0.72638   0.72149   0.00000  Uiso   1.00
C1783  C     0.40633   0.91794   0.72299   0.00000  Uiso   1.00
C1784  C     0.37929   0.96338   0.85085   0.00000  Uiso   1.00
C1785  C     0.31424   0.89950   0.92372   0.00000  Uiso   1.00
O1786  O     0.28483   0.95970   0.84359   0.00000  Uiso   1.00
C1787  C     0.29404   0.93311   0.95751   0.00000  Uiso   1.00
N1788  N     0.29738   0.88955   0.81850   0.00000  Uiso   1.00
C1789  C     0.40525   0.72898   0.93178   0.00000  Uiso   1.00
C1790  C     0.48670   0.84568   0.90130   0.00000  Uiso   1.00
C1791  C     0.31739   0.91238   0.95209   0.00000  Uiso   1.00
C1792  C     0.33891   0.88886   0.90664   0.00000  Uiso   1.00
C1793  C     0.30064   0.92464   0.90850   0.00000  Uiso   1.00
H1794  H     0.28673   0.87259   0.94589   0.00000  Uiso   1.00
H1795  H     0.53931   0.94013   0.93947   0.00000  Uiso   1.00
N1796  N     0.49880   0.74534   0.96598   0.00000  Uiso   1.00
C1797  C     0.26732   0.91818   0.96589   0.00000  Uiso   1.00
C1798  C     0.39499   0.94114   0.86073   0.00000  Uiso   1.00
H1799  H     0.31896   0.72348   0.83142   0.00000  Uiso   1.00
H1800  H     0.47375   0.91826   0.74593   0.00000  Uiso   1.00
C1801  C     0.38611   0.91196   0.74454   0.00000  Uiso   1.00
H1802  H     0.43254   0.86595   0.92208   0.00000  Uiso   1.00
C1803  C     0.45140   0.79220   0.74112   0.00000  Uiso   1.00
H1804  H     0.45163   0.88721   0.74456   0.00000  Uiso   1.00
H1805  H     0.36376   0.80278   0.72685   0.00000  Uiso   1.00
O1806  O     0.24179   0.87360   0.77492   0.00000  Uiso   1.00
C1807  C     0.47989   0.80486   0.78472   0.00000  Uiso   1.00
C1808  C     0.52555   0.92302   0.94078   0.00000  Uiso   1.00
H1809  H     0.49375   0.86746   0.75048   0.00000  Uiso   1.00
C1810  C     0.48649   0.82497   0.73742   0.00000  Uiso   1.00
C1811  C     0.51047   0.91880   0.91335   0.00000  Uiso   1.00
C1812  C     0.52658   0.92775   0.88798   0.00000  Uiso   1.00
C1813  C     0.46283   0.80585   0.89668   0.00000  Uiso   1.00
C1814  C     0.47006   0.76756   0.92745   0.00000  Uiso   1.00
C1815  C     0.49892   0.85088   0.73560   0.00000  Uiso   1.00
C1816  C     0.41029   0.90638   0.92496   0.00000  Uiso   1.00
H1817  H     0.34626   0.90524   0.89187   0.00000  Uiso   1.00
C1818  C     0.41556   0.87220   0.96240   0.00000  Uiso   1.00
C1819  C     0.25818   0.74475   0.88777   0.00000  Uiso   1.00
O1820  O     0.33948   0.89754   0.75674   0.00000  Uiso   1.00
H1821  H     0.43971   0.77865   0.75640   0.00000  Uiso   1.00
C1822  C     0.39717   0.92412   0.94337   0.00000  Uiso   1.00
H1823  H     0.47754   0.88436   0.87957   0.00000  Uiso   1.00
C1824  C     0.26490   0.74732   0.91610   0.00000  Uiso   1.00
O1825  O     0.24999   0.76290   0.93377   0.00000  Uiso   1.00
C1826  C     0.24985   0.75991   0.79892   0.00000  Uiso   1.00
H1827  H     0.43150   0.84406   0.74706   0.00000  Uiso   1.00
C1828  C     0.38876   0.74326   0.91218   0.00000  Uiso   1.00
C1829  C     0.39654   0.93451   0.88863   0.00000  Uiso   1.00
C1830  C     0.29158   0.88049   0.76659   0.00000  Uiso   1.00
C1831  C     0.42602   0.77304   0.90487   0.00000  Uiso   1.00
C1832  C     0.38195   0.95114   0.90690   0.00000  Uiso   1.00
H1833  H     0.47322   0.93091   0.89366   0.00000  Uiso   1.00
C1834  C     0.29908   0.93057   0.88114   0.00000  Uiso   1.00
C1835  C     0.53888   0.89645   0.94959   0.00000  Uiso   1.00
O1836  O     0.50557   0.80227   0.92165   0.00000  Uiso   1.00
H1837  H     0.26587   0.74977   0.81354   0.00000  Uiso   1.00
C1838  C     0.48608   0.75464   0.94762   0.00000  Uiso   1.00
O1839  O     0.23587   0.75908   0.87679   0.00000  Uiso   1.00
H1840  H     0.47886   0.74833   0.75278   0.00000  Uiso   1.00
H1841  H     0.46552   0.79803   0.80207   0.00000  Uiso   1.00
C1842  C     0.40943   0.92513   0.84077   0.00000  Uiso   1.00
C1843  C     0.31305   0.88636   0.74789   0.00000  Uiso   1.00
O1844  O     0.39894   0.76683   0.89923   0.00000  Uiso   1.00
C1845  C     0.39473   0.91669   0.97157   0.00000  Uiso   1.00
H1846  H     0.35590   0.88117   0.92016   0.00000  Uiso   1.00
H1847  H     0.33107   0.87263   0.89067   0.00000  Uiso   1.00
H1848  H     0.30290   0.85484   0.91957   0.00000  Uiso   1.00
H1849  H     0.26825   0.72634   0.84878   0.00000  Uiso   1.00
H1850  H     0.45269   0.85455   0.77359   0.00000  Uiso   1.00
C1851  C     0.41874   0.81049   0.87179   0.00000  Uiso   1.00
C1852  C     0.27252   0.96727   0.78848   0.00000  Uiso   1.00
O1853  O     0.38462   0.94793   0.93492   0.00000  Uiso   1.00
H1854  H     0.51694   0.92386   0.86753   0.00000  Uiso   1.00
H1855  H     0.37619   0.77296   0.73869   0.00000  Uiso   1.00
H1856  H     0.27769   0.87973   0.90953   0.00000  Uiso   1.00
H1857  H     0.25542   0.91385   0.94845   0.00000  Uiso   1.00
H1858  H     0.43398   0.96382   0.75223   0.00000  Uiso   1.00
C1859  C     0.29421   0.88541   0.79538   0.00000  Uiso   1.00
C1860  C     0.46517   0.81335   0.75839   0.00000  Uiso   1.00
C1861  C     0.28677   0.95569   0.87192   0.00000  Uiso   1.00
H1862  H     0.49168   0.82301   0.79278   0.00000  Uiso   1.00
C1863  C     0.29080   0.94375   0.92878   0.00000  Uiso   1.00
H1864  H     0.54664   0.91748   0.88562   0.00000  Uiso   1.00
H1865  H     0.42959   0.82916   0.78020   0.00000  Uiso   1.00
O1866  O     0.41370   0.91313   0.89835   0.00000  Uiso   1.00
H1867  H     0.52996   0.83700   0.95573   0.00000  Uiso   1.00
H1868  H     0.26100   0.76926   0.78034   0.00000  Uiso   1.00
C1869  C     0.36096   0.73591   0.90676   0.00000  Uiso   1.00
H1870  H     0.30972   0.91585   0.86652   0.00000  Uiso   1.00
C1871  C     0.26514   0.87332   0.75589   0.00000  Uiso   1.00
H1872  H     0.39200   0.91398   0.76650   0.00000  Uiso   1.00
C1873  C     0.44340   0.75869   0.92218   0.00000  Uiso   1.00
H1874  H     0.32082   0.75763   0.74082   0.00000  Uiso   1.00
C1875  C     0.36004   0.90188   0.73645   0.00000  Uiso   1.00
C1876  C     0.28715   0.73155   0.92585   0.00000  Uiso   1.00
N1877  N     0.42168   0.91318   0.82403   0.00000  Uiso   1.00
C1878  C     0.51949   0.84676   0.93876   0.00000  Uiso   1.00
N1879  N     0.27993   0.95161   0.77164   0.00000  Uiso   1.00
C1880  C     0.48859   0.87365   0.89653   0.00000  Uiso   1.00
C1881  C     0.42006   0.87987   0.93454   0.00000  Uiso   1.00
H1882  H     0.46963   0.92439   0.93008   0.00000  Uiso   1.00
O1883  O     0.43364   0.73529   0.93630   0.00000  Uiso   1.00
C1884  C     0.48326   0.93406   0.91377   0.00000  Uiso   1.00
N1885  N     0.40418   0.82278   0.85761   0.00000  Uiso   1.00
H1886  H     0.48524   0.95650   0.91640   0.00000  Uiso   1.00
H1887  H     0.50797   0.93047   0.95425   0.00000  Uiso   1.00
H1888  H     0.49431   0.78889   0.78164   0.00000  Uiso   1.00
H1889  H     0.44582   0.91422   0.76814   0.00000  Uiso   1.00
H1890  H     0.34881   0.74465   0.88958   0.00000  Uiso   1.00
C1891  C     0.50466   0.88798   0.91402   0.00000  Uiso   1.00
C1892  C     0.43607   0.79657   0.89057   0.00000  Uiso   1.00
H1893  H     0.43598   0.80056   0.72640   0.00000  Uiso   1.00
C1894  C     0.45245   0.91071   0.74626   0.00000  Uiso   1.00
C1895  C     0.52021   0.87477   0.93435   0.00000  Uiso   1.00
C1896  C     0.48069   0.79123   0.91449   0.00000  Uiso   1.00
O1897  O     0.37823   0.96714   0.82114   0.00000  Uiso   1.00
C1898  C     0.43629   0.95924   0.73016   0.00000  Uiso   1.00
C1899  C     0.29446   0.87501   0.92358   0.00000  Uiso   1.00
H1900  H     0.22797   0.76142   0.74956   0.00000  Uiso   1.00
O1901  O     0.47026   0.83101   0.88460   0.00000  Uiso   1.00
C1902  C     0.50481   0.83144   0.92048   0.00000  Uiso   1.00
H1903  H     0.33806   0.92064   0.95481   0.00000  Uiso   1.00
C1904  C     0.22515   0.77580   0.92344   0.00000  Uiso   1.00
C1905  C     0.44412   0.83650   0.76430   0.00000  Uiso   1.00
C1906  C     0.40417   0.82208   0.96847   0.00000  Uiso   1.00
C1907  C     0.26119   0.86837   0.72721   0.00000  Uiso   1.00
C1908  C     0.27861   0.96831   0.92049   0.00000  Uiso   1.00
H1909  H     0.53093   0.94984   0.88838   0.00000  Uiso   1.00
H1910  H     0.31662   0.89440   0.96707   0.00000  Uiso   1.00
H1911  H     0.29052   0.73152   0.94800   0.00000  Uiso   1.00
H1912  H     0.41145   0.81359   0.94877   0.00000  Uiso   1.00
C1913  C     0.48658   0.75355   0.73204   0.00000  Uiso   1.00
H1914  H     0.45806   0.83408   0.95156   0.00000  Uiso   1.00
H1915  H     0.24086   0.77690   0.81038   0.00000  Uiso   1.00
C1916  C     0.27415   0.72732   0.87025   0.00000  Uiso   1.00
C1917  C     0.22906   0.74008   0.78830   0.00000  Uiso   1.00
H1918  H     0.31566   0.79147   0.72589   0.00000  Uiso   1.00
H1919  H     0.22791   0.96100   0.95328   0.00000  Uiso   1.00
H1920  H     0.50966   0.75387   0.73104   0.00000  Uiso   1.00
H1921  H     0.38460   0.83423   0.96556   0.00000  Uiso   1.00
H1922  H     0.45609   0.96910   0.72348   0.00000  Uiso   1.00
H1923  H     0.28304   0.72926   0.75746   0.00000  Uiso   1.00
C1924  C     0.43658   0.92764   0.72367   0.00000  Uiso   1.00
C1925  C     0.26360   0.81125   1.03777   0.00000  Uiso   1.00
C1926  C     0.49873   0.93411   1.11950   0.00000  Uiso   1.00
H1927  H     0.39627   0.76323   1.02234   0.00000  Uiso   1.00
C1928  C     0.23538   0.79791   1.09866   0.00000  Uiso   1.00
C1929  C     0.46913   0.90361   1.09277   0.00000  Uiso   1.00
C1930  C     0.42142   0.86390   1.16341   0.00000  Uiso   1.00
C1931  C     0.45977   0.83595   1.14315   0.00000  Uiso   1.00
N1932  N     0.55417   0.83682   1.18218   0.00000  Uiso   1.00
C1933  C     0.24615   0.95515   1.12060   0.00000  Uiso   1.00
H1934  H     0.25740   0.86711   1.04802   0.00000  Uiso   1.00
C1935  C     0.52130   0.89955   1.00196   0.00000  Uiso   1.00
H1936  H     0.46770   0.85606   0.98088   0.00000  Uiso   1.00
H1937  H     0.40392   0.79882   1.15944   0.00000  Uiso   1.00
H1938  H     0.22527   0.85406   1.03577   0.00000  Uiso   1.00
C1939  C     0.53288   0.73253   1.04686   0.00000  Uiso   1.00
C1940  C     0.50096   0.96852   1.21576   0.00000  Uiso   1.00
C1941  C     0.27121   0.82913   1.08624   0.00000  Uiso   1.00
H1942  H     0.33898   0.76584   1.11033   0.00000  Uiso   1.00
C1943  C     0.49355   0.91962   1.09467   0.00000  Uiso   1.00
H1944  H     0.43471   0.91738   1.02116   0.00000  Uiso   1.00
H1945  H     0.27463   0.76414   1.07953   0.00000  Uiso   1.00
H1946  H     0.31984   0.87726   1.06128   0.00000  Uiso   1.00
C1947  C     0.44977   0.80692   1.20559   0.00000  Uiso   1.00
H1948  H     0.38449   0.93149   0.98574   0.00000  Uiso   1.00
H1949  H     0.26808   0.84909   1.09844   0.00000  Uiso   1.00
C1950  C     0.47875   0.95095   1.21393   0.00000  Uiso   1.00
C1951  C     0.41079   0.83857   1.20497   0.00000  Uiso   1.00
H1952  H     0.22900   0.87729   1.14599   0.00000  Uiso   1.00
H1953  H     0.25060   0.91055   1.12314   0.00000  Uiso   1.00
C1954  C     0.47277   0.93862   1.18899   0.00000  Uiso   1.00
H1955  H     0.41632   0.83933   1.02365   0.00000  Uiso   1.00
C1956  C     0.24009   0.85477   1.05387   0.00000  Uiso   1.00
C1957  C     0.54540   0.85198   1.08891   0.00000  Uiso   1.00
H1958  H     0.22887   0.93469   1.02779   0.00000  Uiso   1.00
C1959  C     0.41689   0.79636   1.09514   0.00000  Uiso   1.00
C1960  C     0.54170   0.72443   1.19527   0.00000  Uiso   1.00
C1961  C     0.39236   0.88868   1.20011   0.00000  Uiso   1.00
H1962  H     0.46629   0.79585   1.19394   0.00000  Uiso   1.00
C1963  C     0.36582   0.84488   1.06164   0.00000  Uiso   1.00
C1964  C     0.39716   0.89619   1.03169   0.00000  Uiso   1.00
C1965  C     0.50395   0.85208   1.12736   0.00000  Uiso   1.00
H1966  H     0.35314   0.84638   1.07999   0.00000  Uiso   1.00
H1967  H     0.41242   0.89595   1.20837   0.00000  Uiso   1.00
H1968  H     0.31061   0.76108   1.17790   0.00000  Uiso   1.00
H1969  H     0.35494   0.86112   1.18747   0.00000  Uiso   1.00
H1970  H     0.30377   0.78560   1.08414   0.00000  Uiso   1.00
H1971  H     0.41228   0.81661   1.08579   0.00000  Uiso   1.00
C1972  C     0.42022   0.85583   1.00793   0.00000  Uiso   1.00
C1973  C     0.38280   0.75313   1.03590   0.00000  Uiso   1.00
H1974  H     0.43769   0.87966   1.17023   0.00000  Uiso   1.00
H1975  H     0.35442   0.90863   1.08589   0.00000  Uiso   1.00
H1976  H     0.27098   0.94322   1.15405   0.00000  Uiso   1.00
C1977  C     0.48387   0.84979   1.14819   0.00000  Uiso   1.00
C1978  C     0.28450   0.77800   1.09446   0.00000  Uiso   1.00
C1979  C     0.54385   0.94631   1.10311   0.00000  Uiso   1.00
C1980  C     0.51332   0.91835   1.07401   0.00000  Uiso   1.00
H1981  H     0.34032   0.78513   1.05043   0.00000  Uiso   1.00
C1982  C     0.54673   0.86767   1.11323   0.00000  Uiso   1.00
C1983  C     0.51060   0.96348   1.16830   0.00000  Uiso   1.00
C1984  C     0.39138   0.72362   1.04514   0.00000  Uiso   1.00
H1985  H     0.45694   0.76045   1.12190   0.00000  Uiso   1.00
O1986  O     0.47885   0.93279   1.14089   0.00000  Uiso   1.00
H1987  H     0.41305   0.87385   1.14433   0.00000  Uiso   1.00
C1988  C     0.30321   0.80233   1.18665   0.00000  Uiso   1.00
H1989  H     0.36008   0.82490   1.05150   0.00000  Uiso   1.00
C1990  C     0.27939   0.80625   1.13393   0.00000  Uiso   1.00
H1991  H     0.23349   0.86723   1.07141   0.00000  Uiso   1.00
O1992  O     0.38883   0.94838   1.09909   0.00000  Uiso   1.00
O1993  O     0.43720   0.95118   1.06361   0.00000  Uiso   1.00
C1994  C     0.43215   0.82502   1.19106   0.00000  Uiso   1.00
H1995  H     0.39937   0.82671   1.13325   0.00000  Uiso   1.00
C1996  C     0.41475   0.81502   1.14475   0.00000  Uiso   1.00
H1997  H     0.36717   0.73224   0.98477   0.00000  Uiso   1.00
C1998  C     0.40920   0.96600   1.10544   0.00000  Uiso   1.00
N1999  N     0.44915   0.89062   1.09157   0.00000  Uiso   1.00
H2000  H     0.36082   0.76706   0.97862   0.00000  Uiso   1.00
H2001  H     0.47947   0.80510   1.08126   0.00000  Uiso   1.00
H2002  H     0.42951   0.78442   1.07907   0.00000  Uiso   1.00
C2003  C     0.37490   0.89331   1.04933   0.00000  Uiso   1.00
H2004  H     0.45448   0.92436   1.18543   0.00000  Uiso   1.00
H2005  H     0.24976   0.92366   1.08949   0.00000  Uiso   1.00
H2006  H     0.29371   0.82999   1.08083   0.00000  Uiso   1.00
C2007  C     0.47887   0.81776   1.10122   0.00000  Uiso   1.00
C2008  C     0.30194   0.77998   1.16872   0.00000  Uiso   1.00
H2009  H     0.39722   0.78561   1.09617   0.00000  Uiso   1.00
C2010  C     0.33590   0.77887   1.02925   0.00000  Uiso   1.00
H2011  H     0.32217   0.73550   1.09611   0.00000  Uiso   1.00
H2012  H     0.38584   0.90354   1.18490   0.00000  Uiso   1.00
C2013  C     0.53853   0.93135   1.07925   0.00000  Uiso   1.00
C2014  C     0.26634   0.80240   1.10467   0.00000  Uiso   1.00
H2015  H     0.41702   0.72322   1.00872   0.00000  Uiso   1.00
C2016  C     0.42367   0.84628   0.97851   0.00000  Uiso   1.00
C2017  C     0.29252   0.76047   1.11976   0.00000  Uiso   1.00
O2018  O     0.52923   0.96736   1.14575   0.00000  Uiso   1.00
O2019  O     0.52662   0.86878   1.13414   0.00000  Uiso   1.00
H2020  H     0.45300   0.75004   1.03965   0.00000  Uiso   1.00
H2021  H     0.42452   0.75742   1.13725   0.00000  Uiso   1.00
H2022  H     0.31348   0.77681   1.02604   0.00000  Uiso   1.00
C2023  C     0.43389   0.83530   1.16105   0.00000  Uiso   1.00
C2024  C     0.27215   0.73474   1.12479   0.00000  Uiso   1.00
C2025  C     0.41583   0.93199   1.05878   0.00000  Uiso   1.00
C2026  C     0.48723   0.94513   1.16585   0.00000  Uiso   1.00
O2027  O     0.50604   0.90608   1.04847   0.00000  Uiso   1.00
H2028  H     0.27066   0.78942   1.04025   0.00000  Uiso   1.00
C2029  C     0.40075   0.88987   0.97899   0.00000  Uiso   1.00
C2030  C     0.29092   0.78255   1.14236   0.00000  Uiso   1.00
H2031  H     0.31577   0.85515   1.03340   0.00000  Uiso   1.00
C2032  C     0.50120   0.83662   1.10251   0.00000  Uiso   1.00
C2033  C     0.35923   0.86781   1.04151   0.00000  Uiso   1.00
H2034  H     0.38949   0.84548   1.06683   0.00000  Uiso   1.00
C2035  C     0.25089   0.93687   0.98594   0.00000  Uiso   1.00
H2036  H     0.32199   0.89131   1.02628   0.00000  Uiso   1.00
C2037  C     0.32724   0.87288   1.04078   0.00000  Uiso   1.00
C2038  C     0.39503   0.87633   1.00793   0.00000  Uiso   1.00
C2039  C     0.41764   0.91454   1.03573   0.00000  Uiso   1.00
H2040  H     0.37903   0.88555   1.21868   0.00000  Uiso   1.00
C2041  C     0.32285   0.75036   1.11398   0.00000  Uiso   1.00
N2042  N     0.30607   0.92134   1.20840   0.00000  Uiso   1.00
H2043  H     0.36914   0.73138   1.09812   0.00000  Uiso   1.00
C2044  C     0.45791   0.81858   1.12088   0.00000  Uiso   1.00
C2045  C     0.52371   0.94895   1.12388   0.00000  Uiso   1.00
H2046  H     0.32936   0.73834   1.13329   0.00000  Uiso   1.00
H2047  H     0.38061   0.76347   1.05454   0.00000  Uiso   1.00
H2048  H     0.33153   0.74457   0.98425   0.00000  Uiso   1.00
O2049  O     0.29471   0.85105   1.19168   0.00000  Uiso   1.00
H2050  H     0.35309   0.87394   0.99877   0.00000  Uiso   1.00
C2051  C     0.27907   0.82902   1.15045   0.00000  Uiso   1.00
C2052  C     0.53173   0.75442   1.19526   0.00000  Uiso   1.00
C2053  C     0.36774   0.86299   1.01230   0.00000  Uiso   1.00
H2054  H     0.48483   0.73044   1.18768   0.00000  Uiso   1.00
C2055  C     0.37211   0.91150   1.07095   0.00000  Uiso   1.00
C2056  C     0.39809   0.86048   1.18561   0.00000  Uiso   1.00
C2057  C     0.24086   0.92064   1.01242   0.00000  Uiso   1.00
H2058  H     0.36595   0.86074   1.15336   0.00000  Uiso   1.00
H2059  H     0.51671   0.76025   1.17843   0.00000  Uiso   1.00
H2060  H     0.36883   0.82985   1.17640   0.00000  Uiso   1.00
H2061  H     0.34113   0.79771   1.01665   0.00000  Uiso   1.00
C2062  C     0.35299   0.75292   1.02174   0.00000  Uiso   1.00
H2063  H     0.29298   0.95150   1.12695   0.00000  Uiso   1.00
C2064  C     0.29213   0.82754   1.17623   0.00000  Uiso   1.00
H2065  H     0.52339   0.75895   1.21504   0.00000  Uiso   1.00
C2066  C     0.39244   0.93141   1.07665   0.00000  Uiso   1.00
H2067  H     0.36413   0.84199   1.00532   0.00000  Uiso   1.00
H2068  H     0.24898   0.81150   1.02071   0.00000  Uiso   1.00
H2069  H     0.27355   0.89901   0.97689   0.00000  Uiso   1.00
H2070  H     0.28186   0.82285   1.03183   0.00000  Uiso   1.00
H2071  H     0.45397   0.77550   1.15385   0.00000  Uiso   1.00
C2072  C     0.43370   0.79995   1.12282   0.00000  Uiso   1.00
C2073  C     0.35316   0.74935   0.99047   0.00000  Uiso   1.00
O2074  O     0.52122   0.83593   1.08224   0.00000  Uiso   1.00
H2075  H     0.46103   0.82174   0.98470   0.00000  Uiso   1.00
H2076  H     0.47485   0.72580   1.05678   0.00000  Uiso   1.00
H2077  H     0.25835   0.91113   1.02243   0.00000  Uiso   1.00
H2078  H     0.27119   0.85015   1.14399   0.00000  Uiso   1.00
H2079  H     0.48612   0.86368   1.16641   0.00000  Uiso   1.00
H2080  H     0.50002   0.89249   0.99583   0.00000  Uiso   1.00
H2081  H     0.43814   0.86795   1.01626   0.00000  Uiso   1.00
H2082  H     0.25231   0.74063   1.12999   0.00000  Uiso   1.00
C2083  C     0.29727   0.95519   0.98147   0.00000  Uiso   1.00
C2084  C     0.25113   0.82644   1.06219   0.00000  Uiso   1.00
C2085  C     0.44229   0.77248   1.13397   0.00000  Uiso   1.00
C2086  C     0.27269   0.95655   1.13769   0.00000  Uiso   1.00
C2087  C     0.22652   0.80859   1.07389   0.00000  Uiso   1.00
H2088  H     0.22582   0.90520   1.00639   0.00000  Uiso   1.00
C2089  C     0.30700   0.84981   1.21885   0.00000  Uiso   1.00
C2090  C     0.52683   0.90892   1.02815   0.00000  Uiso   1.00
C2091  C     0.36992   0.85144   1.17402   0.00000  Uiso   1.00
H2092  H     0.51989   0.74912   1.03906   0.00000  Uiso   1.00
O2093  O     0.31508   0.79951   1.21199   0.00000  Uiso   1.00
C2094  C     0.55380   0.91819   1.03415   0.00000  Uiso   1.00
C2095  C     0.27222   0.95827   0.99521   0.00000  Uiso   1.00
H2096  H     0.55456   0.74193   0.98966   0.00000  Uiso   1.00
C2097  C     0.24042   0.92661   1.10833   0.00000  Uiso   1.00
H2098  H     0.29763   0.73107   1.03462   0.00000  Uiso   1.00
H2099  H     0.53096   0.73367   1.06944   0.00000  Uiso   1.00
H2100  H     0.54912   0.76840   1.19215   0.00000  Uiso   1.00
C2101  C     0.43174   0.96809   1.08760   0.00000  Uiso   1.00
H2102  H     0.40128   0.80531   0.98207   0.00000  Uiso   1.00
C2103  C     0.54159   0.89860   0.98055   0.00000  Uiso   1.00
N2104  N     0.24160   0.79676   1.21447   0.00000  Uiso   1.00
C2105  C     0.34240   0.72650   1.03572   0.00000  Uiso   1.00
C2106  C     0.22606   0.95134   0.97376   0.00000  Uiso   1.00
C2107  C     0.45959   0.72940   1.03990   0.00000  Uiso   1.00
H2108  H     0.22483   0.77054   1.13375   0.00000  Uiso   1.00
H2109  H     0.34061   0.96777   0.97815   0.00000  Uiso   1.00
C2110  C     0.32013   0.96995   0.98952   0.00000  Uiso   1.00
C2111  C     0.30956   0.90044   1.21964   0.00000  Uiso   1.00
N2112  N     0.36794   0.97194   1.16454   0.00000  Uiso   1.00
N2113  N     0.39380   0.74949   1.21742   0.00000  Uiso   1.00
H2114  H     0.27225   0.72355   1.10457   0.00000  Uiso   1.00
C2115  C     0.45480   0.83912   0.97319   0.00000  Uiso   1.00
O2116  O     0.27498   1.00873   0.46908   0.00000  Uiso   1.00
C2117  C     0.35777   1.05375   0.39721   0.00000  Uiso   1.00
C2118  C     0.50936   1.00913   0.24438   0.00000  Uiso   1.00
H2119  H     0.41776   1.04004   0.41156   0.00000  Uiso   1.00
N2120  N     0.51622   1.21018   0.25789   0.00000  Uiso   1.00
C2121  C     0.42439   1.05300   0.39283   0.00000  Uiso   1.00
C2122  C     0.45015   1.04782   0.38001   0.00000  Uiso   1.00
C2123  C     0.29671   1.10278   0.41584   0.00000  Uiso   1.00
H2124  H     0.38827   1.00600   0.46005   0.00000  Uiso   1.00
C2125  C     0.37559   1.07767   0.38964   0.00000  Uiso   1.00
C2126  C     0.40455   1.06840   0.37975   0.00000  Uiso   1.00
C2127  C     0.49990   1.20312   0.42352   0.00000  Uiso   1.00
H2128  H     0.39164   1.20957   0.45701   0.00000  Uiso   1.00
C2129  C     0.24095   1.09647   0.27733   0.00000  Uiso   1.00
N2130  N     0.44998   1.13558   0.30356   0.00000  Uiso   1.00
C2131  C     0.45670   1.06267   0.35494   0.00000  Uiso   1.00
C2132  C     0.36220   1.09368   0.36555   0.00000  Uiso   1.00
C2133  C     0.40948   1.07715   0.35295   0.00000  Uiso   1.00
H2134  H     0.35831   1.11495   0.37064   0.00000  Uiso   1.00
C2135  C     0.27345   1.19515   0.27372   0.00000  Uiso   1.00
C2136  C     0.47725   1.20292   0.44080   0.00000  Uiso   1.00
C2137  C     0.49612   1.16644   0.34759   0.00000  Uiso   1.00
C2138  C     0.43655   1.07482   0.34069   0.00000  Uiso   1.00
H2139  H     0.34176   1.08404   0.36010   0.00000  Uiso   1.00
C2140  C     0.50075   1.18911   0.39914   0.00000  Uiso   1.00
C2141  C     0.42031   0.97664   0.23155   0.00000  Uiso   1.00
H2142  H     0.47411   0.98308   0.27168   0.00000  Uiso   1.00
H2143  H     0.29179   1.11807   0.23381   0.00000  Uiso   1.00
H2144  H     0.32440   1.11195   0.31802   0.00000  Uiso   1.00
H2145  H     0.40892   1.14173   0.36173   0.00000  Uiso   1.00
C2146  C     0.39719   1.14138   0.34094   0.00000  Uiso   1.00
C2147  C     0.38744   1.11890   0.32797   0.00000  Uiso   1.00
C2148  C     0.38304   1.09135   0.34172   0.00000  Uiso   1.00
H2149  H     0.50634   1.07110   0.42021   0.00000  Uiso   1.00
O2150  O     0.31711   1.18752   0.36729   0.00000  Uiso   1.00
N2151  N     0.54249   1.05937   0.29876   0.00000  Uiso   1.00
H2152  H     0.39275   1.06484   0.30652   0.00000  Uiso   1.00
C2153  C     0.25207   1.21497   0.28305   0.00000  Uiso   1.00
C2154  C     0.28099   1.13749   0.32318   0.00000  Uiso   1.00
C2155  C     0.38317   1.09719   0.41388   0.00000  Uiso   1.00
C2156  C     0.52135   1.20040   0.23690   0.00000  Uiso   1.00
C2157  C     0.37342   1.07416   0.31679   0.00000  Uiso   1.00
C2158  C     0.36129   1.09354   0.29566   0.00000  Uiso   1.00
C2159  C     0.45550   1.18503   0.43548   0.00000  Uiso   1.00
H2160  H     0.31425   1.19508   0.25365   0.00000  Uiso   1.00
C2161  C     0.29751   1.19133   0.32254   0.00000  Uiso   1.00
H2162  H     0.51213   1.01712   0.26520   0.00000  Uiso   1.00
C2163  C     0.29271   0.97820   0.27289   0.00000  Uiso   1.00
H2164  H     0.49048   1.01743   0.23420   0.00000  Uiso   1.00
C2165  C     0.49315   1.15948   0.31994   0.00000  Uiso   1.00
C2166  C     0.33081   1.10078   0.29881   0.00000  Uiso   1.00
C2167  C     0.40039   1.21343   0.29370   0.00000  Uiso   1.00
H2168  H     0.36041   1.10081   0.24968   0.00000  Uiso   1.00
C2169  C     0.29812   1.21016   0.25981   0.00000  Uiso   1.00
C2170  C     0.53911   1.17217   0.30974   0.00000  Uiso   1.00
H2171  H     0.23214   1.20386   0.29128   0.00000  Uiso   1.00
H2172  H     0.52089   1.02428   0.44362   0.00000  Uiso   1.00
C2173  C     0.28321   1.07552   0.24572   0.00000  Uiso   1.00
H2174  H     0.36189   1.05607   0.32329   0.00000  Uiso   1.00
C2175  C     0.50302   0.99561   0.38026   0.00000  Uiso   1.00
H2176  H     0.36750   1.04322   0.41458   0.00000  Uiso   1.00
O2177  O     0.29984   1.13137   0.36707   0.00000  Uiso   1.00
C2178  C     0.51446   0.99028   0.47017   0.00000  Uiso   1.00
C2179  C     0.46883   1.14667   0.31085   0.00000  Uiso   1.00
C2180  C     0.30593   1.12871   0.41699   0.00000  Uiso   1.00
C2181  C     0.37629   1.14289   0.28725   0.00000  Uiso   1.00
C2182  C     0.50064   1.03812   0.35405   0.00000  Uiso   1.00
C2183  C     0.54146   1.18065   0.33733   0.00000  Uiso   1.00
C2184  C     0.49153   1.02153   0.37642   0.00000  Uiso   1.00
H2185  H     0.35537   1.06563   0.26049   0.00000  Uiso   1.00
H2186  H     0.44088   1.08477   0.32073   0.00000  Uiso   1.00
H2187  H     0.45249   1.00030   0.45975   0.00000  Uiso   1.00
C2188  C     0.55344   1.08439   0.44966   0.00000  Uiso   1.00
C2189  C     0.50180   1.08073   0.44127   0.00000  Uiso   1.00
C2190  C     0.35089   1.00632   0.23104   0.00000  Uiso   1.00
C2191  C     0.45587   1.17139   0.41013   0.00000  Uiso   1.00
N2192  N     0.28952   1.07963   0.41628   0.00000  Uiso   1.00
O2193  O     0.30256   1.06580   0.22762   0.00000  Uiso   1.00
H2194  H     0.33735   1.06215   0.40440   0.00000  Uiso   1.00
O2195  O     0.46772   1.02934   0.39242   0.00000  Uiso   1.00
O2196  O     0.47373   1.16137   0.36556   0.00000  Uiso   1.00
C2197  C     0.53402   1.00132   0.34263   0.00000  Uiso   1.00
H2198  H     0.32283   1.11509   0.28220   0.00000  Uiso   1.00
C2199  C     0.28049   1.10457   0.24834   0.00000  Uiso   1.00
H2200  H     0.38710   1.07586   0.26282   0.00000  Uiso   1.00
H2201  H     0.24373   1.17587   0.24403   0.00000  Uiso   1.00
H2202  H     0.48102   1.09047   0.43795   0.00000  Uiso   1.00
C2203  C     0.29508   1.14930   0.34624   0.00000  Uiso   1.00
C2204  C     0.25362   1.14436   0.27595   0.00000  Uiso   1.00
C2205  C     0.25687   1.02766   0.45759   0.00000  Uiso   1.00
H2206  H     0.32088   1.08042   0.29590   0.00000  Uiso   1.00
C2207  C     0.38820   1.16708   0.29682   0.00000  Uiso   1.00
H2208  H     0.40902   1.15354   0.44513   0.00000  Uiso   1.00
C2209  C     0.23353   0.98858   0.43971   0.00000  Uiso   1.00
C2210  C     0.39986   1.16552   0.32509   0.00000  Uiso   1.00
C2211  C     0.36646   1.08435   0.26614   0.00000  Uiso   1.00
C2212  C     0.37578   1.11937   0.30178   0.00000  Uiso   1.00
O2213  O     0.27243   1.02912   0.26358   0.00000  Uiso   1.00
C2214  C     0.52619   0.98577   0.36551   0.00000  Uiso   1.00
H2215  H     0.36858   1.14337   0.26688   0.00000  Uiso   1.00
C2216  C     0.23601   1.01738   0.44119   0.00000  Uiso   1.00
C2217  C     0.28177   1.18022   0.30041   0.00000  Uiso   1.00
C2218  C     0.29740   1.02087   0.25146   0.00000  Uiso   1.00
H2219  H     0.47380   1.02670   0.45699   0.00000  Uiso   1.00
C2220  C     0.31293   1.03926   0.23340   0.00000  Uiso   1.00
H2221  H     0.27715   1.16215   0.24300   0.00000  Uiso   1.00
H2222  H     0.30588   1.21272   0.32132   0.00000  Uiso   1.00
H2223  H     0.27422   1.11614   0.32501   0.00000  Uiso   1.00
C2224  C     0.26174   1.17003   0.25705   0.00000  Uiso   1.00
H2225  H     0.35666   1.04051   0.38044   0.00000  Uiso   1.00
O2226  O     0.48428   1.06053   0.34419   0.00000  Uiso   1.00
O2227  O     0.52477   1.18973   0.38331   0.00000  Uiso   1.00
H2228  H     0.40102   1.19440   0.42600   0.00000  Uiso   1.00
C2229  C     0.51314   1.16252   0.30116   0.00000  Uiso   1.00
C2230  C     0.26727   1.05768   0.26213   0.00000  Uiso   1.00
C2231  C     0.52628   1.10031   0.44904   0.00000  Uiso   1.00
C2232  C     0.53379   1.04535   0.31596   0.00000  Uiso   1.00
C2233  C     0.30283   1.17696   0.34621   0.00000  Uiso   1.00
O2234  O     0.38923   1.19096   0.28053   0.00000  Uiso   1.00
O2235  O     0.33925   1.18083   0.46297   0.00000  Uiso   1.00
H2236  H     0.43651   1.16052   0.40265   0.00000  Uiso   1.00
C2237  C     0.27079   1.15381   0.30209   0.00000  Uiso   1.00
H2238  H     0.54984   1.06183   0.45064   0.00000  Uiso   1.00
C2239  C     0.47818   1.17345   0.39174   0.00000  Uiso   1.00
C2240  C     0.52321   1.02795   0.33841   0.00000  Uiso   1.00
C2241  C     0.33527   0.98860   0.24871   0.00000  Uiso   1.00
F2242  F     0.50840   1.15453   0.27489   0.00000  Uiso   1.00
H2243  H     0.52392   1.11353   0.40614   0.00000  Uiso   1.00
C2244  C     0.26036   1.11440   0.26616   0.00000  Uiso   1.00
C2245  C     0.52845   1.00449   0.44983   0.00000  Uiso   1.00
C2246  C     0.30635   1.14344   0.39260   0.00000  Uiso   1.00
C2247  C     0.31877   1.17027   0.39128   0.00000  Uiso   1.00
O2248  O     0.41101   1.18943   0.33697   0.00000  Uiso   1.00
H2249  H     0.23027   1.05535   0.28735   0.00000  Uiso   1.00
H2250  H     0.51045   1.13820   0.43030   0.00000  Uiso   1.00
C2251  C     0.33185   1.17975   0.41462   0.00000  Uiso   1.00
H2252  H     0.39984   1.10994   0.40517   0.00000  Uiso   1.00
C2253  C     0.41313   1.21279   0.31919   0.00000  Uiso   1.00
C2254  C     0.31686   1.14029   0.44147   0.00000  Uiso   1.00
C2255  C     0.34553   1.20482   0.41272   0.00000  Uiso   1.00
C2256  C     0.51942   1.17962   0.35664   0.00000  Uiso   1.00
C2257  C     0.46559   1.01289   0.47262   0.00000  Uiso   1.00
H2258  H     0.54780   1.13420   0.42828   0.00000  Uiso   1.00
H2259  H     0.49788   1.06417   0.45760   0.00000  Uiso   1.00
H2260  H     0.39434   1.08625   0.42914   0.00000  Uiso   1.00
C2261  C     0.24574   1.06903   0.27707   0.00000  Uiso   1.00
N2262  N     0.23033   0.98586   0.23724   0.00000  Uiso   1.00
C2263  C     0.32974   1.16651   0.43955   0.00000  Uiso   1.00
H2264  H     0.39724   1.04313   0.47037   0.00000  Uiso   1.00
H2265  H     0.23499   1.10523   0.33520   0.00000  Uiso   1.00
C2266  C     0.48962   0.97791   0.39779   0.00000  Uiso   1.00
C2267  C     0.24023   1.07374   0.45189   0.00000  Uiso   1.00
H2268  H     0.36632   1.11006   0.41946   0.00000  Uiso   1.00
C2269  C     0.24283   1.10173   0.45615   0.00000  Uiso   1.00
C2270  C     0.52728   1.12319   0.42678   0.00000  Uiso   1.00
C2271  C     0.30850   0.99563   0.25699   0.00000  Uiso   1.00
C2272  C     0.43300   1.18859   0.45625   0.00000  Uiso   1.00
O2273  O     0.31525   1.12578   0.46687   0.00000  Uiso   1.00
F2274  F     0.22986   1.01031   0.30545   0.00000  Uiso   1.00
C2275  C     0.26008   1.05638   0.46217   0.00000  Uiso   1.00
C2276  C     0.47392   1.21923   0.46701   0.00000  Uiso   1.00
C2277  C     0.55189   0.99273   0.43786   0.00000  Uiso   1.00
C2278  C     0.40899   1.20517   0.44420   0.00000  Uiso   1.00
H2279  H     0.55519   0.97309   0.24203   0.00000  Uiso   1.00
C2280  C     0.42194   1.15930   0.46349   0.00000  Uiso   1.00
H2281  H     0.51518   1.21819   0.42898   0.00000  Uiso   1.00
C2282  C     0.39171   0.98045   0.23596   0.00000  Uiso   1.00
N2283  N     0.24629   1.12579   0.45957   0.00000  Uiso   1.00
C2284  C     0.50870   0.97745   0.24451   0.00000  Uiso   1.00
H2285  H     0.43812   1.14303   0.46603   0.00000  Uiso   1.00
H2286  H     0.52620   1.01691   0.23177   0.00000  Uiso   1.00
C2287  C     0.22404   1.14301   0.28568   0.00000  Uiso   1.00
C2288  C     0.52232   1.11003   0.47791   0.00000  Uiso   1.00
O2289  O     0.32570   1.11654   0.70191   0.00000  Uiso   1.00
H2290  H     0.33421   1.19422   0.62758   0.00000  Uiso   1.00
H2291  H     0.40781   1.01298   0.52316   0.00000  Uiso   1.00
C2292  C     0.25756   1.08169   0.66292   0.00000  Uiso   1.00
H2293  H     0.23020   1.08207   0.60897   0.00000  Uiso   1.00
H2294  H     0.24809   1.20608   0.62725   0.00000  Uiso   1.00
H2295  H     0.45823   1.18387   0.49300   0.00000  Uiso   1.00
H2296  H     0.27203   1.15483   0.55268   0.00000  Uiso   1.00
C2297  C     0.32114   1.16251   0.58341   0.00000  Uiso   1.00
H2298  H     0.30501   1.09150   0.56764   0.00000  Uiso   1.00
C2299  C     0.30390   1.10563   0.68761   0.00000  Uiso   1.00
C2300  C     0.40033   1.12305   0.68910   0.00000  Uiso   1.00
O2301  O     0.47991   1.14704   0.52946   0.00000  Uiso   1.00
C2302  C     0.46165   1.06631   0.56248   0.00000  Uiso   1.00
C2303  C     0.31820   1.10656   0.57936   0.00000  Uiso   1.00
H2304  H     0.54844   1.10348   0.70563   0.00000  Uiso   1.00
C2305  C     0.34707   1.01062   0.49626   0.00000  Uiso   1.00
H2306  H     0.54483   1.01995   0.56852   0.00000  Uiso   1.00
H2307  H     0.24674   1.02720   0.65283   0.00000  Uiso   1.00
C2308  C     0.46295   1.03663   0.69540   0.00000  Uiso   1.00
C2309  C     0.48971   1.03116   0.65402   0.00000  Uiso   1.00
C2310  C     0.39025   1.02762   0.68793   0.00000  Uiso   1.00
C2311  C     0.30548   1.09396   0.66153   0.00000  Uiso   1.00
C2312  C     0.27972   1.13606   0.56447   0.00000  Uiso   1.00
N2313  N     0.42015   1.19019   0.53804   0.00000  Uiso   1.00
O2314  O     0.53461   1.01529   0.68479   0.00000  Uiso   1.00
H2315  H     0.42222   0.97674   0.59942   0.00000  Uiso   1.00
O2316  O     0.32987   1.09335   0.64649   0.00000  Uiso   1.00
H2317  H     0.30384   1.10885   0.51243   0.00000  Uiso   1.00
C2318  C     0.51111   1.02465   0.69866   0.00000  Uiso   1.00
H2319  H     0.28048   1.17367   0.68814   0.00000  Uiso   1.00
C2320  C     0.47845   1.20803   0.57508   0.00000  Uiso   1.00
H2321  H     0.41284   0.99695   0.62903   0.00000  Uiso   1.00
C2322  C     0.33829   1.16631   0.53770   0.00000  Uiso   1.00
C2323  C     0.32870   1.05702   0.49474   0.00000  Uiso   1.00
C2324  C     0.55375   1.03834   0.57828   0.00000  Uiso   1.00
O2325  O     0.42698   1.11165   0.57987   0.00000  Uiso   1.00
C2326  C     0.50913   1.10552   0.60741   0.00000  Uiso   1.00
F2327  F     0.42445   1.13065   0.70310   0.00000  Uiso   1.00
C2328  C     0.23509   1.03969   0.63783   0.00000  Uiso   1.00
H2329  H     0.51618   1.01127   0.51731   0.00000  Uiso   1.00
C2330  C     0.34403   0.98528   0.67958   0.00000  Uiso   1.00
C2331  C     0.52807   1.13031   0.53301   0.00000  Uiso   1.00
H2332  H     0.33130   1.07976   0.49643   0.00000  Uiso   1.00
H2333  H     0.33046   1.03752   0.66506   0.00000  Uiso   1.00
C2334  C     0.46983   1.08698   0.58194   0.00000  Uiso   1.00
C2335  C     0.34989   1.03962   0.50016   0.00000  Uiso   1.00
C2336  C     0.36414   1.21077   0.59636   0.00000  Uiso   1.00
H2337  H     0.30939   1.10618   0.59933   0.00000  Uiso   1.00
H2338  H     0.41253   0.99122   0.48431   0.00000  Uiso   1.00
H2339  H     0.35408   1.19920   0.51040   0.00000  Uiso   1.00
C2340  C     0.38017   1.06830   0.53304   0.00000  Uiso   1.00
C2341  C     0.49099   1.12642   0.61815   0.00000  Uiso   1.00
C2342  C     0.54664   1.10530   0.49296   0.00000  Uiso   1.00
C2343  C     0.33964   1.00941   0.69845   0.00000  Uiso   1.00
C2344  C     0.42400   1.15553   0.60366   0.00000  Uiso   1.00
O2345  O     0.51136   1.06129   0.58043   0.00000  Uiso   1.00
N2346  N     0.45542   1.04899   0.54742   0.00000  Uiso   1.00
O2347  O     0.43754   1.03663   0.68159   0.00000  Uiso   1.00
C2348  C     0.38647   1.13906   0.57563   0.00000  Uiso   1.00
C2349  C     0.34802   1.20594   0.57059   0.00000  Uiso   1.00
H2350  H     0.24312   1.08203   0.54648   0.00000  Uiso   1.00
C2351  C     0.46432   1.12931   0.60865   0.00000  Uiso   1.00
C2352  C     0.31984   1.02939   0.68364   0.00000  Uiso   1.00
C2353  C     0.23012   1.07841   0.52692   0.00000  Uiso   1.00
C2354  C     0.32240   1.14112   0.48822   0.00000  Uiso   1.00
O2355  O     0.28312   1.06574   0.47621   0.00000  Uiso   1.00
C2356  C     0.40878   1.17923   0.60963   0.00000  Uiso   1.00
H2357  H     0.36032   1.21846   0.55509   0.00000  Uiso   1.00
H2358  H     0.37187   1.08472   0.51959   0.00000  Uiso   1.00
C2359  C     0.52094   1.18309   0.58312   0.00000  Uiso   1.00
C2360  C     0.39712   1.05453   0.48930   0.00000  Uiso   1.00
C2361  C     0.37916   1.07716   0.63001   0.00000  Uiso   1.00
C2362  C     0.50219   1.14601   0.63607   0.00000  Uiso   1.00
C2363  C     0.34614   1.17486   0.56663   0.00000  Uiso   1.00
C2364  C     0.40282   1.10675   0.66540   0.00000  Uiso   1.00
H2365  H     0.30537   1.17799   0.58511   0.00000  Uiso   1.00
C2366  C     0.37817   1.09615   0.65380   0.00000  Uiso   1.00
C2367  C     0.32244   1.00102   0.48707   0.00000  Uiso   1.00
H2368  H     0.28455   1.07552   0.62662   0.00000  Uiso   1.00
H2369  H     0.32192   0.97808   0.67455   0.00000  Uiso   1.00
C2370  C     0.49833   1.21947   0.48681   0.00000  Uiso   1.00
H2371  H     0.41779   1.05468   0.49599   0.00000  Uiso   1.00
C2372  C     0.48771   1.03121   0.68413   0.00000  Uiso   1.00
C2373  C     0.28181   1.08308   0.64831   0.00000  Uiso   1.00
C2374  C     0.41570   1.03809   0.70009   0.00000  Uiso   1.00
C2375  C     0.22649   1.08547   0.70142   0.00000  Uiso   1.00
H2376  H     0.51744   1.17988   0.48177   0.00000  Uiso   1.00
H2377  H     0.32503   1.15861   0.60590   0.00000  Uiso   1.00
H2378  H     0.35677   1.21196   0.70666   0.00000  Uiso   1.00
C2379  C     0.38380   1.18428   0.59608   0.00000  Uiso   1.00
C2380  C     0.49763   1.08481   0.59148   0.00000  Uiso   1.00
H2381  H     0.45581   0.98967   0.64022   0.00000  Uiso   1.00
H2382  H     0.27029   1.11821   0.55376   0.00000  Uiso   1.00
H2383  H     0.31059   1.04701   0.69440   0.00000  Uiso   1.00
C2384  C     0.54783   1.11314   0.52113   0.00000  Uiso   1.00
C2385  C     0.50444   1.20614   0.58810   0.00000  Uiso   1.00
C2386  C     0.44214   1.18867   0.54631   0.00000  Uiso   1.00
O2387  O     0.53198   1.14235   0.55830   0.00000  Uiso   1.00
C2388  C     0.45397   1.10971   0.58902   0.00000  Uiso   1.00
H2389  H     0.26931   1.13766   0.58497   0.00000  Uiso   1.00
C2390  C     0.31155   1.13574   0.56709   0.00000  Uiso   1.00
C2391  C     0.37280   1.16403   0.57900   0.00000  Uiso   1.00
H2392  H     0.35643   0.98523   0.65886   0.00000  Uiso   1.00
C2393  C     0.51724   1.19935   0.49498   0.00000  Uiso   1.00
C2394  C     0.25452   1.09332   0.68927   0.00000  Uiso   1.00
N2395  N     0.49286   1.03095   0.62983   0.00000  Uiso   1.00
C2396  C     0.50168   1.13207   0.51795   0.00000  Uiso   1.00
C2397  C     0.32368   1.14120   0.53811   0.00000  Uiso   1.00
H2398  H     0.40978   1.16024   0.48254   0.00000  Uiso   1.00
F2399  F     0.42761   1.10274   0.65086   0.00000  Uiso   1.00
H2400  H     0.24507   1.07011   0.51336   0.00000  Uiso   1.00
H2401  H     0.43670   1.21367   0.49338   0.00000  Uiso   1.00
C2402  C     0.35212   1.10248   0.66261   0.00000  Uiso   1.00
C2403  C     0.44942   1.20121   0.48025   0.00000  Uiso   1.00
C2404  C     0.27772   1.10578   0.70147   0.00000  Uiso   1.00
C2405  C     0.51300   1.16410   0.56373   0.00000  Uiso   1.00
C2406  C     0.38607   1.01567   0.52195   0.00000  Uiso   1.00
H2407  H     0.37802   1.01227   0.54303   0.00000  Uiso   1.00
C2408  C     0.37372   0.99529   0.50263   0.00000  Uiso   1.00
H2409  H     0.34023   1.10056   0.58240   0.00000  Uiso   1.00
C2410  C     0.50080   1.12329   0.49025   0.00000  Uiso   1.00
C2411  C     0.33527   1.16752   0.48726   0.00000  Uiso   1.00
C2412  C     0.54571   1.17985   0.59506   0.00000  Uiso   1.00
C2413  C     0.47964   0.97424   0.50275   0.00000  Uiso   1.00
H2414  H     0.32757   1.21524   0.57037   0.00000  Uiso   1.00
C2415  C     0.41269   1.13490   0.58700   0.00000  Uiso   1.00
C2416  C     0.23064   1.06892   0.65192   0.00000  Uiso   1.00
O2417  O     0.44844   1.15203   0.61790   0.00000  Uiso   1.00
C2418  C     0.48910   0.99980   0.48781   0.00000  Uiso   1.00
C2419  C     0.34175   1.18073   0.51230   0.00000  Uiso   1.00
C2420  C     0.46953   1.18693   0.55745   0.00000  Uiso   1.00
H2421  H     0.36559   1.06621   0.55111   0.00000  Uiso   1.00
C2422  C     0.48785   1.16631   0.54981   0.00000  Uiso   1.00
C2423  C     0.26458   1.21958   0.63566   0.00000  Uiso   1.00
C2424  C     0.30446   1.04732   0.48233   0.00000  Uiso   1.00
H2425  H     0.41848   1.19438   0.62328   0.00000  Uiso   1.00
N2426  N     0.37928   1.06136   0.61179   0.00000  Uiso   1.00
H2427  H     0.29410   1.17333   0.65258   0.00000  Uiso   1.00
C2428  C     0.30045   1.01923   0.48008   0.00000  Uiso   1.00
O2429  O     0.53589   1.10310   0.61754   0.00000  Uiso   1.00
C2430  C     0.55160   1.08137   0.60494   0.00000  Uiso   1.00
H2431  H     0.38795   1.02076   0.66675   0.00000  Uiso   1.00
H2432  H     0.30265   1.01688   0.67719   0.00000  Uiso   1.00
C2433  C     0.53826   1.06018   0.58861   0.00000  Uiso   1.00
H2434  H     0.40118   1.07331   0.54135   0.00000  Uiso   1.00
C2435  C     0.37369   1.12668   0.70132   0.00000  Uiso   1.00
H2436  H     0.28088   1.21779   0.62105   0.00000  Uiso   1.00
C2437  C     0.37843   1.04386   0.51199   0.00000  Uiso   1.00
H2438  H     0.37776   1.12289   0.56336   0.00000  Uiso   1.00
N2439  N     0.51116   1.16207   0.65079   0.00000  Uiso   1.00
H2440  H     0.23614   1.02478   0.53638   0.00000  Uiso   1.00
C2441  C     0.53836   1.20433   0.51390   0.00000  Uiso   1.00
C2442  C     0.27741   1.18018   0.66701   0.00000  Uiso   1.00
C2443  C     0.31543   1.12917   0.51337   0.00000  Uiso   1.00
H2444  H     0.24728   1.04114   0.61912   0.00000  Uiso   1.00
C2445  C     0.36770   1.02442   0.70493   0.00000  Uiso   1.00
C2446  C     0.39078   0.99044   0.47718   0.00000  Uiso   1.00
H2447  H     0.35700   0.97613   0.55680   0.00000  Uiso   1.00
H2448  H     0.48382   1.02613   0.52245   0.00000  Uiso   1.00
H2449  H     0.25723   1.17067   0.66433   0.00000  Uiso   1.00
H2450  H     0.39313   1.07574   0.48277   0.00000  Uiso   1.00
H2451  H     0.47529   0.97764   0.52490   0.00000  Uiso   1.00
C2452  C     0.35000   1.11618   0.68875   0.00000  Uiso   1.00
C2453  C     0.49962   1.02117   0.50789   0.00000  Uiso   1.00
C2454  C     0.34743   1.21262   0.62209   0.00000  Uiso   1.00
C2455  C     0.24926   1.22180   0.68475   0.00000  Uiso   1.00
H2456  H     0.50475   1.04031   0.49655   0.00000  Uiso   1.00
H2457  H     0.31388   1.21149   0.67446   0.00000  Uiso   1.00
C2458  C     0.27244   1.21123   0.66489   0.00000  Uiso   1.00
H2459  H     0.48250   1.12673   0.47819   0.00000  Uiso   1.00
H2460  H     0.36039   1.21771   0.64129   0.00000  Uiso   1.00
H2461  H     0.31771   0.97876   0.48352   0.00000  Uiso   1.00
C2462  C     0.41158   0.97611   0.61928   0.00000  Uiso   1.00
H2463  H     0.23374   0.97874   0.51869   0.00000  Uiso   1.00
H2464  H     0.45105   1.02326   0.48711   0.00000  Uiso   1.00
H2465  H     0.31053   1.20781   0.71899   0.00000  Uiso   1.00
H2466  H     0.27483   1.11458   0.72081   0.00000  Uiso   1.00
H2467  H     0.32142   1.10263   0.77859   0.00000  Uiso   1.00
C2468  C     0.46622   1.03798   0.90972   0.00000  Uiso   1.00
H2469  H     0.48783   1.03378   0.90797   0.00000  Uiso   1.00
C2470  C     0.31981   1.05890   0.77858   0.00000  Uiso   1.00
H2471  H     0.23741   1.13515   0.86830   0.00000  Uiso   1.00
H2472  H     0.33943   1.08977   0.80618   0.00000  Uiso   1.00
C2473  C     0.31120   1.18069   0.80662   0.00000  Uiso   1.00
C2474  C     0.36650   1.13600   0.88492   0.00000  Uiso   1.00
C2475  C     0.33586   1.08652   0.78367   0.00000  Uiso   1.00
O2476  O     0.34796   1.00057   0.85945   0.00000  Uiso   1.00
C2477  C     0.46320   1.07905   0.85075   0.00000  Uiso   1.00
C2478  C     0.34099   1.02536   0.74501   0.00000  Uiso   1.00
H2479  H     0.26951   0.98253   0.93560   0.00000  Uiso   1.00
H2480  H     0.40405   1.05357   0.86824   0.00000  Uiso   1.00
C2481  C     0.39096   1.14804   0.87462   0.00000  Uiso   1.00
C2482  C     0.41462   1.07204   0.81470   0.00000  Uiso   1.00
C2483  C     0.23388   1.02552   0.81986   0.00000  Uiso   1.00
H2484  H     0.36167   1.11453   0.87922   0.00000  Uiso   1.00
O2485  O     0.51122   1.07054   0.85451   0.00000  Uiso   1.00
H2486  H     0.24203   1.13823   0.75273   0.00000  Uiso   1.00
C2487  C     0.49061   1.11634   0.86512   0.00000  Uiso   1.00
C2488  C     0.33461   1.03433   0.79365   0.00000  Uiso   1.00
C2489  C     0.23452   1.20103   0.86624   0.00000  Uiso   1.00
C2490  C     0.23350   1.04643   0.73855   0.00000  Uiso   1.00
C2491  C     0.35580   1.17696   0.90958   0.00000  Uiso   1.00
C2492  C     0.24497   1.00758   0.79987   0.00000  Uiso   1.00
C2493  C     0.41566   1.04710   0.72681   0.00000  Uiso   1.00
C2494  C     0.26269   0.98630   0.80804   0.00000  Uiso   1.00
C2495  C     0.49016   1.04731   0.76757   0.00000  Uiso   1.00
C2496  C     0.48748   1.03968   0.73970   0.00000  Uiso   1.00
H2497  H     0.42923   1.08304   0.79948   0.00000  Uiso   1.00
C2498  C     0.28395   1.14245   0.93503   0.00000  Uiso   1.00
H2499  H     0.33818   0.98092   0.73246   0.00000  Uiso   1.00
O2500  O     0.51809   1.12733   0.87078   0.00000  Uiso   1.00
C2501  C     0.42024   1.16744   0.83861   0.00000  Uiso   1.00
H2502  H     0.46094   1.05782   0.84282   0.00000  Uiso   1.00
C2503  C     0.27188   1.17528   0.84122   0.00000  Uiso   1.00
H2504  H     0.29815   1.03651   0.74413   0.00000  Uiso   1.00
C2505  C     0.53516   1.08442   0.84821   0.00000  Uiso   1.00
C2506  C     0.33719   1.03003   0.82192   0.00000  Uiso   1.00
C2507  C     0.37099   1.13881   0.72771   0.00000  Uiso   1.00
N2508  N     0.49209   1.05364   0.79035   0.00000  Uiso   1.00
H2509  H     0.43335   1.21873   0.88964   0.00000  Uiso   1.00
N2510  N     0.30858   1.04850   0.87781   0.00000  Uiso   1.00
C2511  C     0.34840   1.14905   0.90236   0.00000  Uiso   1.00
H2512  H     0.32797   1.04575   0.83694   0.00000  Uiso   1.00
C2513  C     0.54738   1.21105   0.95025   0.00000  Uiso   1.00
C2514  C     0.41493   1.18909   0.86120   0.00000  Uiso   1.00
C2515  C     0.28336   1.04965   0.94413   0.00000  Uiso   1.00
C2516  C     0.46630   1.00634   0.94581   0.00000  Uiso   1.00
H2517  H     0.28155   1.08018   0.78075   0.00000  Uiso   1.00
H2518  H     0.29765   1.17361   0.79040   0.00000  Uiso   1.00
C2519  C     0.39502   1.07384   0.86265   0.00000  Uiso   1.00
C2520  C     0.34654   1.01727   0.77470   0.00000  Uiso   1.00
N2521  N     0.26121   1.09806   0.91508   0.00000  Uiso   1.00
H2522  H     0.40546   1.12080   0.81003   0.00000  Uiso   1.00
H2523  H     0.37295   1.07337   0.85691   0.00000  Uiso   1.00
H2524  H     0.37621   1.11575   0.83040   0.00000  Uiso   1.00
H2525  H     0.46870   1.15590   0.87345   0.00000  Uiso   1.00
C2526  C     0.48928   1.08837   0.85732   0.00000  Uiso   1.00
H2527  H     0.35454   1.08953   0.77170   0.00000  Uiso   1.00
C2528  C     0.31873   1.17743   0.93909   0.00000  Uiso   1.00
C2529  C     0.53818   1.11278   0.85576   0.00000  Uiso   1.00
C2530  C     0.23754   1.03646   0.94613   0.00000  Uiso   1.00
H2531  H     0.39652   1.08419   0.88195   0.00000  Uiso   1.00
C2532  C     0.44062   1.09647   0.85011   0.00000  Uiso   1.00
C2533  C     0.22847   1.04030   0.86525   0.00000  Uiso   1.00
C2534  C     0.45975   1.03671   0.93987   0.00000  Uiso   1.00
H2535  H     0.38950   1.21387   0.83281   0.00000  Uiso   1.00
H2536  H     0.46438   1.05783   0.90094   0.00000  Uiso   1.00
C2537  C     0.44138   1.12377   0.85838   0.00000  Uiso   1.00
H2538  H     0.29306   1.06999   0.81486   0.00000  Uiso   1.00
C2539  C     0.37821   1.18973   0.89789   0.00000  Uiso   1.00
H2540  H     0.40581   1.17097   0.82013   0.00000  Uiso   1.00
N2541  N     0.54593   1.02161   0.82143   0.00000  Uiso   1.00
C2542  C     0.22579   1.07287   0.73050   0.00000  Uiso   1.00
H2543  H     0.32212   1.18519   0.86156   0.00000  Uiso   1.00
C2544  C     0.30862   1.05004   0.90131   0.00000  Uiso   1.00
H2545  H     0.47662   1.07566   0.94517   0.00000  Uiso   1.00
C2546  C     0.40694   1.21653   0.84818   0.00000  Uiso   1.00
C2547  C     0.23893   1.02039   0.84721   0.00000  Uiso   1.00
C2548  C     0.29138   1.06434   0.79308   0.00000  Uiso   1.00
H2549  H     0.43042   1.10413   0.96758   0.00000  Uiso   1.00
H2550  H     0.32560   1.19621   0.79912   0.00000  Uiso   1.00
H2551  H     0.38025   1.21240   0.90205   0.00000  Uiso   1.00
N2552  N     0.36966   1.14854   0.74884   0.00000  Uiso   1.00
C2553  C     0.33403   1.05770   0.94251   0.00000  Uiso   1.00
C2554  C     0.39073   1.04503   0.74163   0.00000  Uiso   1.00
C2555  C     0.30333   1.19126   0.95898   0.00000  Uiso   1.00
C2556  C     0.30888   1.05275   0.92966   0.00000  Uiso   1.00
C2557  C     0.29479   1.19405   0.83022   0.00000  Uiso   1.00
N2558  N     0.33956   0.99868   0.93607   0.00000  Uiso   1.00
C2559  C     0.36656   1.03391   0.73121   0.00000  Uiso   1.00
H2560  H     0.44095   1.16583   0.83128   0.00000  Uiso   1.00
C2561  C     0.36403   0.97934   0.86968   0.00000  Uiso   1.00
H2562  H     0.32005   1.06305   0.73256   0.00000  Uiso   1.00
O2563  O     0.35791   1.05213   0.92861   0.00000  Uiso   1.00
C2564  C     0.39295   1.17631   0.87832   0.00000  Uiso   1.00
C2565  C     0.46685   1.13419   0.86625   0.00000  Uiso   1.00
C2566  C     0.31838   1.04760   0.74903   0.00000  Uiso   1.00
O2567  O     0.32469   1.13607   0.90962   0.00000  Uiso   1.00
H2568  H     0.39490   1.06412   0.80414   0.00000  Uiso   1.00
H2569  H     0.45913   0.99763   0.96591   0.00000  Uiso   1.00
C2570  C     0.41104   1.08934   0.84078   0.00000  Uiso   1.00
H2571  H     0.45815   1.20259   0.87147   0.00000  Uiso   1.00
H2572  H     0.42144   1.05040   0.82007   0.00000  Uiso   1.00
O2573  O     0.34129   1.19300   0.92884   0.00000  Uiso   1.00
C2574  C     0.34862   1.00606   0.83172   0.00000  Uiso   1.00
C2575  C     0.35909   0.99346   0.78433   0.00000  Uiso   1.00
C2576  C     0.30986   1.15203   0.92765   0.00000  Uiso   1.00
H2577  H     0.40659   1.03484   0.90983   0.00000  Uiso   1.00
O2578  O     0.43971   1.05352   0.73968   0.00000  Uiso   1.00
O2579  O     0.25989   1.04134   0.92969   0.00000  Uiso   1.00
H2580  H     0.27776   1.04625   0.79239   0.00000  Uiso   1.00
O2581  O     0.23927   1.01185   0.77187   0.00000  Uiso   1.00
H2582  H     0.45728   1.02228   0.89588   0.00000  Uiso   1.00
O2583  O     0.25970   0.99742   0.88277   0.00000  Uiso   1.00
C2584  C     0.25560   0.99948   0.85495   0.00000  Uiso   1.00
C2585  C     0.39948   1.11675   0.83181   0.00000  Uiso   1.00
C2586  C     0.41234   1.13833   0.85156   0.00000  Uiso   1.00
C2587  C     0.27199   1.11834   0.92362   0.00000  Uiso   1.00
O2588  O     0.24246   1.14619   0.96561   0.00000  Uiso   1.00
O2589  O     0.53434   1.02570   0.74355   0.00000  Uiso   1.00
H2590  H     0.32119   1.16125   0.81367   0.00000  Uiso   1.00
C2591  C     0.40698   1.04360   0.93164   0.00000  Uiso   1.00
H2592  H     0.39250   1.05297   0.76351   0.00000  Uiso   1.00
C2593  C     0.31483   1.20540   0.85197   0.00000  Uiso   1.00
H2594  H     0.49979   1.05030   0.95738   0.00000  Uiso   1.00
C2595  C     0.38172   1.05185   0.94297   0.00000  Uiso   1.00
C2596  C     0.43024   1.04247   0.94755   0.00000  Uiso   1.00
C2597  C     0.26865   1.15584   0.95593   0.00000  Uiso   1.00
H2598  H     0.45655   0.99273   0.92909   0.00000  Uiso   1.00
H2599  H     0.30469   1.21806   0.86939   0.00000  Uiso   1.00
C2600  C     0.24372   1.19021   0.83841   0.00000  Uiso   1.00
H2601  H     0.27127   1.15431   0.83060   0.00000  Uiso   1.00
C2602  C     0.31374   1.21610   0.97019   0.00000  Uiso   1.00
H2603  H     0.44155   1.18429   0.89804   0.00000  Uiso   1.00
H2604  H     0.27654   1.16858   0.86197   0.00000  Uiso   1.00
C2605  C     0.47763   1.05628   0.95693   0.00000  Uiso   1.00
C2606  C     0.54994   1.04460   0.82578   0.00000  Uiso   1.00
H2607  H     0.33323   1.21696   0.84326   0.00000  Uiso   1.00
C2608  C     0.27588   0.97449   0.89254   0.00000  Uiso   1.00
C2609  C     0.25089   1.21673   0.82032   0.00000  Uiso   1.00
C2610  C     0.36098   0.98829   0.81264   0.00000  Uiso   1.00
C2611  C     0.35218   0.98728   0.91872   0.00000  Uiso   1.00
C2612  C     0.27889   1.21941   0.81887   0.00000  Uiso   1.00
C2613  C     0.27877   1.17947   0.96958   0.00000  Uiso   1.00
C2614  C     0.23047   1.03893   0.76538   0.00000  Uiso   1.00
C2615  C     0.43807   1.19833   0.87978   0.00000  Uiso   1.00
H2616  H     0.48719   1.00149   0.94630   0.00000  Uiso   1.00
C2617  C     0.46334   1.04319   0.72518   0.00000  Uiso   1.00
C2618  C     0.26758   0.98198   0.83591   0.00000  Uiso   1.00
C2619  C     0.51087   1.02824   0.72724   0.00000  Uiso   1.00
C2620  C     0.55397   1.07139   0.83146   0.00000  Uiso   1.00
C2621  C     0.33308   1.06087   0.97188   0.00000  Uiso   1.00
C2622  C     0.36698   0.97315   0.89727   0.00000  Uiso   1.00
H2623  H     0.30706   0.99886   0.72691   0.00000  Uiso   1.00
H2624  H     0.36823   0.97966   0.76715   0.00000  Uiso   1.00
C2625  C     0.28258   1.05600   0.97225   0.00000  Uiso   1.00
H2626  H     0.22344   1.15258   0.81932   0.00000  Uiso   1.00
C2627  C     0.38197   1.05918   0.97155   0.00000  Uiso   1.00
C2628  C     0.33031   1.00165   0.72761   0.00000  Uiso   1.00
H2629  H     0.24322   1.03268   0.72404   0.00000  Uiso   1.00
H2630  H     0.53436   1.05309   1.02468   0.00000  Uiso   1.00
C2631  C     0.29107   0.99406   1.02391   0.00000  Uiso   1.00
H2632  H     0.48912   1.11002   1.19040   0.00000  Uiso   1.00
H2633  H     0.40675   1.05711   1.18077   0.00000  Uiso   1.00
O2634  O     0.25763   1.05680   0.98728   0.00000  Uiso   1.00
C2635  C     0.34597   1.22051   1.06874   0.00000  Uiso   1.00
C2636  C     0.44156   1.10720   0.98714   0.00000  Uiso   1.00
C2637  C     0.42917   0.99652   1.13760   0.00000  Uiso   1.00
C2638  C     0.37701   1.13157   1.18140   0.00000  Uiso   1.00
C2639  C     0.47587   0.98648   1.07850   0.00000  Uiso   1.00
C2640  C     0.51971   1.06951   1.01779   0.00000  Uiso   1.00
O2641  O     0.26953   1.18939   0.99464   0.00000  Uiso   1.00
O2642  O     0.34133   1.00318   1.02043   0.00000  Uiso   1.00
C2643  C     0.30680   1.07444   1.01224   0.00000  Uiso   1.00
N2644  N     0.30626   1.08285   1.03441   0.00000  Uiso   1.00
C2645  C     0.49813   1.22039   1.13904   0.00000  Uiso   1.00
H2646  H     0.33227   1.13666   1.18921   0.00000  Uiso   1.00
C2647  C     0.54574   1.16745   1.16043   0.00000  Uiso   1.00
H2648  H     0.40860   1.06152   1.00933   0.00000  Uiso   1.00
C2649  C     0.30732   1.06410   0.98563   0.00000  Uiso   1.00
C2650  C     0.35935   1.03369   1.05454   0.00000  Uiso   1.00
C2651  C     0.42828   1.05863   1.17224   0.00000  Uiso   1.00
C2652  C     0.38672   1.02549   1.04748   0.00000  Uiso   1.00
H2653  H     0.26208   1.16360   1.16328   0.00000  Uiso   1.00
C2654  C     0.35096   1.12735   1.19966   0.00000  Uiso   1.00
C2655  C     0.26184   1.15077   1.08776   0.00000  Uiso   1.00
O2656  O     0.35821   1.06682   0.98674   0.00000  Uiso   1.00
C2657  C     0.33061   1.06151   1.08400   0.00000  Uiso   1.00
C2658  C     0.46497   1.03921   1.14368   0.00000  Uiso   1.00
C2659  C     0.46040   1.08867   0.99582   0.00000  Uiso   1.00
C2660  C     0.35718   1.05476   1.07308   0.00000  Uiso   1.00
C2661  C     0.51843   1.20132   1.18772   0.00000  Uiso   1.00
O2662  O     0.38068   1.07208   1.08046   0.00000  Uiso   1.00
H2663  H     0.45425   1.03456   1.01959   0.00000  Uiso   1.00
C2664  C     0.54574   1.16518   1.21081   0.00000  Uiso   1.00
H2665  H     0.33255   1.20195   1.06452   0.00000  Uiso   1.00
C2666  C     0.35163   1.13438   0.99973   0.00000  Uiso   1.00
C2667  C     0.40374   1.16930   1.09605   0.00000  Uiso   1.00
H2668  H     0.43387   1.14935   1.14860   0.00000  Uiso   1.00
C2669  C     0.25028   1.17158   1.00819   0.00000  Uiso   1.00
C2670  C     0.43215   1.12637   1.00656   0.00000  Uiso   1.00
H2671  H     0.39799   1.17138   1.16926   0.00000  Uiso   1.00
O2672  O     0.55165   1.19739   0.97432   0.00000  Uiso   1.00
C2673  C     0.40731   0.97979   1.13030   0.00000  Uiso   1.00
C2674  C     0.23776   1.15004   0.99359   0.00000  Uiso   1.00
O2675  O     0.47447   1.01720   1.12632   0.00000  Uiso   1.00
H2676  H     0.53575   0.98714   1.19745   0.00000  Uiso   1.00
H2677  H     0.46339   1.05033   1.06128   0.00000  Uiso   1.00
N2678  N     0.36404   1.05942   1.18627   0.00000  Uiso   1.00
C2679  C     0.24206   1.16297   1.15022   0.00000  Uiso   1.00
O2680  O     0.43423   1.14637   1.05225   0.00000  Uiso   1.00
C2681  C     0.35147   1.09197   1.11519   0.00000  Uiso   1.00
O2682  O     0.40681   1.13990   1.00093   0.00000  Uiso   1.00
C2683  C     0.44537   1.12863   1.03360   0.00000  Uiso   1.00
C2684  C     0.55023   1.08708   1.09442   0.00000  Uiso   1.00
C2685  C     0.30852   1.04541   1.07633   0.00000  Uiso   1.00
C2686  C     0.34946   1.11033   1.13749   0.00000  Uiso   1.00
N2687  N     0.41495   1.17903   1.11552   0.00000  Uiso   1.00
C2688  C     0.46375   1.08898   1.15346   0.00000  Uiso   1.00
C2689  C     0.30794   1.14228   1.07288   0.00000  Uiso   1.00
H2690  H     0.30465   1.18205   1.13148   0.00000  Uiso   1.00
H2691  H     0.46509   1.12417   1.10686   0.00000  Uiso   1.00
O2692  O     0.28811   1.01342   1.04474   0.00000  Uiso   1.00
C2693  C     0.37331   1.11643   1.15366   0.00000  Uiso   1.00
N2694  N     0.34135   1.12953   0.97884   0.00000  Uiso   1.00
C2695  C     0.47050   1.11909   1.15192   0.00000  Uiso   1.00
H2696  H     0.54548   1.04242   1.06484   0.00000  Uiso   1.00
H2697  H     0.49345   1.07079   1.12792   0.00000  Uiso   1.00
H2698  H     0.42150   1.09064   1.11194   0.00000  Uiso   1.00
O2699  O     0.32192   1.13626   1.04975   0.00000  Uiso   1.00
C2700  C     0.39983   1.10799   1.14437   0.00000  Uiso   1.00
C2701  C     0.31854   1.15642   1.09645   0.00000  Uiso   1.00
C2702  C     0.52789   1.18947   1.16212   0.00000  Uiso   1.00
H2703  H     0.32946   1.11462   1.14770   0.00000  Uiso   1.00
H2704  H     0.41236   1.13001   1.20935   0.00000  Uiso   1.00
H2705  H     0.25404   0.99924   1.10962   0.00000  Uiso   1.00
C2706  C     0.24737   1.17880   1.12335   0.00000  Uiso   1.00
C2707  C     0.25133   1.20963   1.13231   0.00000  Uiso   1.00
N2708  N     0.49409   0.98458   1.06314   0.00000  Uiso   1.00
C2709  C     0.36162   1.15423   1.07352   0.00000  Uiso   1.00
C2710  C     0.27151   1.16658   1.10888   0.00000  Uiso   1.00
H2711  H     0.52794   1.08320   1.09384   0.00000  Uiso   1.00
C2712  C     0.39247   1.14504   1.02575   0.00000  Uiso   1.00
C2713  C     0.36416   1.14173   1.02566   0.00000  Uiso   1.00
C2714  C     0.40038   1.09592   1.11891   0.00000  Uiso   1.00
C2715  C     0.46566   1.10953   1.04013   0.00000  Uiso   1.00
H2716  H     0.36130   1.16829   1.16011   0.00000  Uiso   1.00
C2717  C     0.40763   1.05963   0.98637   0.00000  Uiso   1.00
C2718  C     0.31123   1.02660   1.05345   0.00000  Uiso   1.00
C2719  C     0.24584   1.17633   1.03542   0.00000  Uiso   1.00
C2720  C     0.47651   1.06603   1.14111   0.00000  Uiso   1.00
H2721  H     0.44582   1.14543   1.18432   0.00000  Uiso   1.00
O2722  O     0.51960   1.20128   1.13721   0.00000  Uiso   1.00
C2723  C     0.23441   1.04566   0.97365   0.00000  Uiso   1.00
C2724  C     0.43871   1.08398   1.16743   0.00000  Uiso   1.00
C2725  C     0.46118   1.05869   0.98320   0.00000  Uiso   1.00
C2726  C     0.48158   1.12753   1.12352   0.00000  Uiso   1.00
H2727  H     0.49398   1.03122   1.05761   0.00000  Uiso   1.00
C2728  C     0.34944   1.14279   1.04995   0.00000  Uiso   1.00
H2729  H     0.27008   1.21083   1.14493   0.00000  Uiso   1.00
N2730  N     0.40916   1.01876   1.04205   0.00000  Uiso   1.00
H2731  H     0.49041   1.14876   1.12025   0.00000  Uiso   1.00
H2732  H     0.22581   1.17138   1.16261   0.00000  Uiso   1.00
H2733  H     0.23303   1.21581   1.14722   0.00000  Uiso   1.00
C2734  C     0.31865   0.98930   1.01141   0.00000  Uiso   1.00
O2735  O     0.32790   1.08164   1.10559   0.00000  Uiso   1.00
H2736  H     0.52010   1.07053   0.99373   0.00000  Uiso   1.00
H2737  H     0.34525   1.10633   1.20545   0.00000  Uiso   1.00
H2738  H     0.52446   1.09105   1.02615   0.00000  Uiso   1.00
C2739  C     0.38994   1.15958   1.07304   0.00000  Uiso   1.00
H2740  H     0.49411   1.14452   1.17771   0.00000  Uiso   1.00
C2741  C     0.45230   1.00043   1.11990   0.00000  Uiso   1.00
C2742  C     0.37735   1.08679   1.10421   0.00000  Uiso   1.00
C2743  C     0.40569   1.15184   1.05067   0.00000  Uiso   1.00
H2744  H     0.27227   1.12376   1.05430   0.00000  Uiso   1.00
C2745  C     0.38508   0.97509   1.14893   0.00000  Uiso   1.00
C2746  C     0.48613   1.05158   1.05634   0.00000  Uiso   1.00
C2747  C     0.40218   1.11866   1.19234   0.00000  Uiso   1.00
C2748  C     0.29987   1.16605   1.11626   0.00000  Uiso   1.00
C2749  C     0.42084   1.11089   1.16792   0.00000  Uiso   1.00
H2750  H     0.54990   1.06512   1.14416   0.00000  Uiso   1.00
H2751  H     0.53232   1.04172   1.12689   0.00000  Uiso   1.00
H2752  H     0.47676   1.11066   1.06037   0.00000  Uiso   1.00
C2753  C     0.23047   1.15879   1.05057   0.00000  Uiso   1.00
H2754  H     0.49272   1.06335   1.07337   0.00000  Uiso   1.00
C2755  C     0.43121   1.05232   0.97377   0.00000  Uiso   1.00
H2756  H     0.48453   1.02455   1.00220   0.00000  Uiso   1.00
C2757  C     0.47233   1.04318   1.00867   0.00000  Uiso   1.00
C2758  C     0.37805   1.16332   1.17568   0.00000  Uiso   1.00
H2759  H     0.26103   1.18952   1.04563   0.00000  Uiso   1.00
H2760  H     0.49923   1.11406   1.11862   0.00000  Uiso   1.00
H2761  H     0.39307   1.10035   1.20142   0.00000  Uiso   1.00
C2762  C     0.44237   1.03527   1.16186   0.00000  Uiso   1.00
H2763  H     0.55172   1.01789   1.08695   0.00000  Uiso   1.00
H2764  H     0.51377   1.11728   1.16367   0.00000  Uiso   1.00
C2765  C     0.45327   0.98521   1.09618   0.00000  Uiso   1.00
C2766  C     0.28008   1.13751   1.07087   0.00000  Uiso   1.00
C2767  C     0.44321   1.13240   1.16293   0.00000  Uiso   1.00
H2768  H     0.36646   1.21431   1.07672   0.00000  Uiso   1.00
C2769  C     0.47156   1.08874   1.02195   0.00000  Uiso   1.00
C2770  C     0.48934   1.06301   1.02719   0.00000  Uiso   1.00
O2771  O     0.42895   1.00985   1.16305   0.00000  Uiso   1.00
N2772  N     0.26197   1.05092   1.09896   0.00000  Uiso   1.00
O2773  O     0.34705   1.16148   1.09717   0.00000  Uiso   1.00
C2774  C     0.23118   1.15419   1.08101   0.00000  Uiso   1.00
H2775  H     0.23851   1.14084   1.14704   0.00000  Uiso   1.00
C2776  C     0.33719   1.02085   1.04280   0.00000  Uiso   1.00
C2777  C     0.49354   1.12225   1.17277   0.00000  Uiso   1.00
H2778  H     0.37150   1.17307   1.19521   0.00000  Uiso   1.00
H2779  H     0.22686   1.19666   1.08857   0.00000  Uiso   1.00
N2780  N     0.30393   1.20452   1.18526   0.00000  Uiso   1.00
C2781  C     0.35207   1.04590   1.20231   0.00000  Uiso   1.00
C2782  C     0.28359   1.04895   1.08847   0.00000  Uiso   1.00
H2783  H     0.27586   0.97844   1.14681   0.00000  Uiso   1.00
H2784  H     0.44347   1.21980   1.06460   0.00000  Uiso   1.00
O2785  O     0.37783   1.00100   1.22279   0.00000  Uiso   1.00
C2786  C     0.55319   1.15343   1.18548   0.00000  Uiso   1.00
H2787  H     0.23069   0.99319   1.16682   0.00000  Uiso   1.00
H2788  H     0.54139   0.99923   1.03230   0.00000  Uiso   1.00
C2789  C     0.52843   1.18830   1.21155   0.00000  Uiso   1.00
H2790  H     0.26363   0.97480   1.08276   0.00000  Uiso   1.00
H2791  H     0.48828   1.21943   1.09289   0.00000  Uiso   1.00
H2792  H     0.30986   1.22025   1.11725   0.00000  Uiso   1.00
C2793  C     0.22472   1.17756   1.10114   0.00000  Uiso   1.00
H2794  H     0.23301   1.10961   1.08844   0.00000  Uiso   1.00
C2795  C     0.26941   0.97758   1.01559   0.00000  Uiso   1.00
H2796  H     0.24965   0.98104   1.02542   0.00000  Uiso   1.00
C2797  C     0.24836   0.97901   1.09968   0.00000  Uiso   1.00
C2798  C     0.55368   1.15849   1.13494   0.00000  Uiso   1.00
C2799  C     0.33802   1.03050   1.22184   0.00000  Uiso   1.00
H2800  H     0.35358   1.13694   1.21994   0.00000  Uiso   1.00
H2801  H     0.54657   1.00639   0.99763   0.00000  Uiso   1.00
C2802  C     0.55302   1.04877   1.12876   0.00000  Uiso   1.00
C2803  C     0.51713   0.97431   1.19322   0.00000  Uiso   1.00
H2804  H     0.22729   0.98408   1.09090   0.00000  Uiso   1.00
H2805  H     0.43191   0.99108   1.21754   0.00000  Uiso   1.00
H2806  H     0.34527   1.22255   1.12510   0.00000  Uiso   1.00
H2807  H     0.41598   1.22137   1.08613   0.00000  Uiso   1.00
H2808  H     0.75099   0.36919   0.35997   0.00000  Uiso   1.00
C2809  C     0.88385   0.23482   0.22931   0.00000  Uiso   1.00
C2810  C     0.80532   0.41307   0.43945   0.00000  Uiso   1.00
O2811  O     0.68544   0.31135   0.32193   0.00000  Uiso   1.00
C2812  C     0.61594   0.28716   0.24941   0.00000  Uiso   1.00
C2813  C     0.66126   0.31451   0.39247   0.00000  Uiso   1.00
C2814  C     0.71598   0.26184   0.43239   0.00000  Uiso   1.00
C2815  C     0.74700   0.43558   0.33044   0.00000  Uiso   1.00
H2816  H     0.70709   0.42018   0.27102   0.00000  Uiso   1.00
C2817  C     0.85100   0.34110   0.26633   0.00000  Uiso   1.00
C2818  C     0.82360   0.27088   0.24023   0.00000  Uiso   1.00
C2819  C     0.74242   0.40933   0.31874   0.00000  Uiso   1.00
H2820  H     0.64485   0.44483   0.42256   0.00000  Uiso   1.00
C2821  C     0.58789   0.23186   0.42820   0.00000  Uiso   1.00
H2822  H     0.67143   0.29948   0.26754   0.00000  Uiso   1.00
C2823  C     0.85194   0.44377   0.45152   0.00000  Uiso   1.00
H2824  H     0.88215   0.28109   0.24747   0.00000  Uiso   1.00
C2825  C     0.59181   0.40215   0.41426   0.00000  Uiso   1.00
C2826  C     0.65418   0.30584   0.28217   0.00000  Uiso   1.00
C2827  C     0.74147   0.37599   0.28330   0.00000  Uiso   1.00
C2828  C     0.75937   0.35403   0.26601   0.00000  Uiso   1.00
H2829  H     0.71452   0.36166   0.36351   0.00000  Uiso   1.00
C2830  C     0.79231   0.22404   0.22720   0.00000  Uiso   1.00
C2831  C     0.83890   0.36094   0.28752   0.00000  Uiso   1.00
C2832  C     0.77718   0.44840   0.29340   0.00000  Uiso   1.00
H2833  H     0.84616   0.38191   0.28742   0.00000  Uiso   1.00
C2834  C     0.73918   0.33641   0.24913   0.00000  Uiso   1.00
C2835  C     0.63916   0.32582   0.40735   0.00000  Uiso   1.00
O2836  O     0.87645   0.33853   0.34681   0.00000  Uiso   1.00
C2837  C     0.63998   0.39928   0.39680   0.00000  Uiso   1.00
C2838  C     0.70948   0.23046   0.28704   0.00000  Uiso   1.00
C2839  C     0.59206   0.43266   0.27726   0.00000  Uiso   1.00
N2840  N     0.69511   0.46416   0.27069   0.00000  Uiso   1.00
H2841  H     0.85612   0.29786   0.28501   0.00000  Uiso   1.00
H2842  H     0.75021   0.23361   0.43379   0.00000  Uiso   1.00
C2843  C     0.70195   0.28688   0.39179   0.00000  Uiso   1.00
O2844  O     0.85880   0.23959   0.40497   0.00000  Uiso   1.00
C2845  C     0.75265   0.40505   0.29303   0.00000  Uiso   1.00
H2846  H     0.74201   0.43739   0.35320   0.00000  Uiso   1.00
C2847  C     0.58040   0.29521   0.28357   0.00000  Uiso   1.00
H2848  H     0.65528   0.45820   0.36251   0.00000  Uiso   1.00
H2849  H     0.85894   0.44399   0.40673   0.00000  Uiso   1.00
H2850  H     0.78927   0.28362   0.26328   0.00000  Uiso   1.00
C2851  C     0.83335   0.22715   0.39982   0.00000  Uiso   1.00
C2852  C     0.84084   0.27896   0.37891   0.00000  Uiso   1.00
O2853  O     0.81315   0.27017   0.38207   0.00000  Uiso   1.00
C2854  C     0.82286   0.42027   0.41827   0.00000  Uiso   1.00
O2855  O     0.62345   0.24700   0.36153   0.00000  Uiso   1.00
O2856  O     0.57337   0.26057   0.39188   0.00000  Uiso   1.00
C2857  C     0.87219   0.31356   0.36077   0.00000  Uiso   1.00
C2858  C     0.84543   0.30265   0.36256   0.00000  Uiso   1.00
C2859  C     0.68031   0.40382   0.23921   0.00000  Uiso   1.00
C2860  C     0.82312   0.31644   0.34742   0.00000  Uiso   1.00
C2861  C     0.73826   0.37514   0.45090   0.00000  Uiso   1.00
N2862  N     0.80529   0.32879   0.33638   0.00000  Uiso   1.00
H2863  H     0.82858   0.44551   0.36686   0.00000  Uiso   1.00
C2864  C     0.57924   0.27721   0.30974   0.00000  Uiso   1.00
H2865  H     0.88475   0.44060   0.28046   0.00000  Uiso   1.00
C2866  C     0.71517   0.35690   0.24478   0.00000  Uiso   1.00
C2867  C     0.78826   0.36783   0.44780   0.00000  Uiso   1.00
H2868  H     0.64557   0.39525   0.41780   0.00000  Uiso   1.00
C2869  C     0.62265   0.44304   0.41588   0.00000  Uiso   1.00
C2870  C     0.82259   0.36793   0.22915   0.00000  Uiso   1.00
C2871  C     0.58732   0.27955   0.25721   0.00000  Uiso   1.00
C2872  C     0.72249   0.35495   0.43057   0.00000  Uiso   1.00
N2873  N     0.69936   0.24795   0.29894   0.00000  Uiso   1.00
O2874  O     0.59544   0.41607   0.29890   0.00000  Uiso   1.00
H2875  H     0.78960   0.37250   0.39190   0.00000  Uiso   1.00
H2876  H     0.60884   0.32514   0.22403   0.00000  Uiso   1.00
O2877  O     0.79389   0.46672   0.27907   0.00000  Uiso   1.00
O2878  O     0.72114   0.26868   0.40385   0.00000  Uiso   1.00
H2879  H     0.83484   0.36373   0.44452   0.00000  Uiso   1.00
C2880  C     0.71999   0.37999   0.26157   0.00000  Uiso   1.00
H2881  H     0.87850   0.23243   0.25107   0.00000  Uiso   1.00
H2882  H     0.82007   0.31054   0.27870   0.00000  Uiso   1.00
H2883  H     0.84055   0.37219   0.39724   0.00000  Uiso   1.00
O2884  O     0.67527   0.29260   0.43567   0.00000  Uiso   1.00
H2885  H     0.76847   0.24038   0.37453   0.00000  Uiso   1.00
H2886  H     0.77016   0.40290   0.38645   0.00000  Uiso   1.00
C2887  C     0.73374   0.24384   0.44504   0.00000  Uiso   1.00
H2888  H     0.74025   0.34546   0.31816   0.00000  Uiso   1.00
H2889  H     0.77189   0.33791   0.27828   0.00000  Uiso   1.00
C2890  C     0.59948   0.25796   0.34908   0.00000  Uiso   1.00
C2891  C     0.68408   0.30719   0.34989   0.00000  Uiso   1.00
H2892  H     0.77785   0.41838   0.25901   0.00000  Uiso   1.00
C2893  C     0.86945   0.28490   0.23020   0.00000  Uiso   1.00
H2894  H     0.69383   0.41961   0.34141   0.00000  Uiso   1.00
C2895  C     0.70243   0.40207   0.25702   0.00000  Uiso   1.00
C2896  C     0.78151   0.39384   0.43036   0.00000  Uiso   1.00
C2897  C     0.78656   0.22887   0.38250   0.00000  Uiso   1.00
O2898  O     0.75507   0.24176   0.25488   0.00000  Uiso   1.00
C2899  C     0.78795   0.39329   0.39874   0.00000  Uiso   1.00
C2900  C     0.83664   0.34494   0.23907   0.00000  Uiso   1.00
H2901  H     0.72061   0.31543   0.28575   0.00000  Uiso   1.00
C2902  C     0.81453   0.40816   0.39012   0.00000  Uiso   1.00
N2903  N     0.62191   0.33581   0.41888   0.00000  Uiso   1.00
C2904  C     0.60707   0.39684   0.24708   0.00000  Uiso   1.00
H2905  H     0.57246   0.41625   0.41510   0.00000  Uiso   1.00
C2906  C     0.78108   0.24468   0.24377   0.00000  Uiso   1.00
H2907  H     0.61392   0.44312   0.43661   0.00000  Uiso   1.00
H2908  H     0.73882   0.40926   0.41885   0.00000  Uiso   1.00
C2909  C     0.70514   0.29394   0.36332   0.00000  Uiso   1.00
C2910  C     0.59827   0.42392   0.25085   0.00000  Uiso   1.00
H2911  H     0.71985   0.29564   0.25101   0.00000  Uiso   1.00
H2912  H     0.67904   0.38428   0.33671   0.00000  Uiso   1.00
C2913  C     0.76425   0.35799   0.46069   0.00000  Uiso   1.00
C2914  C     0.59539   0.43003   0.32358   0.00000  Uiso   1.00
C2915  C     0.61738   0.23451   0.38666   0.00000  Uiso   1.00
C2916  C     0.72322   0.38715   0.32894   0.00000  Uiso   1.00
C2917  C     0.84171   0.30950   0.27189   0.00000  Uiso   1.00
C2918  C     0.76551   0.45399   0.31911   0.00000  Uiso   1.00
C2919  C     0.60148   0.41600   0.34784   0.00000  Uiso   1.00
C2920  C     0.69402   0.40061   0.32855   0.00000  Uiso   1.00
C2921  C     0.60580   0.31180   0.28978   0.00000  Uiso   1.00
H2922  H     0.79550   0.44570   0.38035   0.00000  Uiso   1.00
C2923  C     0.56595   0.23979   0.44338   0.00000  Uiso   1.00
C2924  C     0.81427   0.35641   0.45402   0.00000  Uiso   1.00
C2925  C     0.63769   0.32616   0.32449   0.00000  Uiso   1.00
C2926  C     0.72945   0.28561   0.34977   0.00000  Uiso   1.00
C2927  C     0.75067   0.40040   0.43628   0.00000  Uiso   1.00
H2928  H     0.77409   0.36620   0.25351   0.00000  Uiso   1.00
H2929  H     0.82937   0.37506   0.36329   0.00000  Uiso   1.00
H2930  H     0.65683   0.40894   0.38412   0.00000  Uiso   1.00
O2931  O     0.64141   0.33412   0.35209   0.00000  Uiso   1.00
H2932  H     0.84123   0.35411   0.30981   0.00000  Uiso   1.00
C2933  C     0.57434   0.26399   0.36351   0.00000  Uiso   1.00
H2934  H     0.63025   0.24439   0.25927   0.00000  Uiso   1.00
C2935  C     0.86288   0.26484   0.39138   0.00000  Uiso   1.00
H2936  H     0.68630   0.40681   0.30719   0.00000  Uiso   1.00
H2937  H     0.72826   0.39516   0.37240   0.00000  Uiso   1.00
C2938  C     0.83381   0.32013   0.22450   0.00000  Uiso   1.00
H2939  H     0.70678   0.35454   0.30429   0.00000  Uiso   1.00
C2940  C     0.61535   0.46860   0.40107   0.00000  Uiso   1.00
C2941  C     0.60525   0.42883   0.37229   0.00000  Uiso   1.00
C2942  C     0.61036   0.32759   0.31364   0.00000  Uiso   1.00
H2943  H     0.73194   0.35349   0.40977   0.00000  Uiso   1.00
C2944  C     0.73023   0.37779   0.35806   0.00000  Uiso   1.00
H2945  H     0.58738   0.25646   0.26323   0.00000  Uiso   1.00
N2946  N     0.61314   0.37424   0.24306   0.00000  Uiso   1.00
C2947  C     0.88335   0.34310   0.26320   0.00000  Uiso   1.00
C2948  C     0.62714   0.30336   0.27304   0.00000  Uiso   1.00
C2949  C     0.73013   0.31001   0.26424   0.00000  Uiso   1.00
H2950  H     0.60729   0.39344   0.34557   0.00000  Uiso   1.00
C2951  C     0.68011   0.29764   0.40647   0.00000  Uiso   1.00
C2952  C     0.72714   0.36416   0.30827   0.00000  Uiso   1.00
C2953  C     0.63231   0.26111   0.24330   0.00000  Uiso   1.00
H2954  H     0.72437   0.45408   0.42005   0.00000  Uiso   1.00
C2955  C     0.60044   0.26295   0.32122   0.00000  Uiso   1.00
C2956  C     0.77047   0.42366   0.28055   0.00000  Uiso   1.00
H2957  H     0.62065   0.26344   0.31041   0.00000  Uiso   1.00
H2958  H     0.63624   0.38016   0.38678   0.00000  Uiso   1.00
C2959  C     0.61501   0.41668   0.39936   0.00000  Uiso   1.00
C2960  C     0.84501   0.43816   0.42362   0.00000  Uiso   1.00
C2961  C     0.65944   0.31424   0.30942   0.00000  Uiso   1.00
H2962  H     0.59750   0.39963   0.43491   0.00000  Uiso   1.00
C2963  C     0.66283   0.31877   0.36431   0.00000  Uiso   1.00
C2964  C     0.81091   0.42057   0.46683   0.00000  Uiso   1.00
C2965  C     0.59251   0.43943   0.22609   0.00000  Uiso   1.00
H2966  H     0.57216   0.27880   0.23907   0.00000  Uiso   1.00
N2967  N     0.74914   0.27860   0.33778   0.00000  Uiso   1.00
H2968  H     0.67791   0.44284   0.25076   0.00000  Uiso   1.00
C2969  C     0.81001   0.43230   0.36956   0.00000  Uiso   1.00
C2970  C     0.81106   0.24296   0.38827   0.00000  Uiso   1.00
C2971  C     0.84188   0.29541   0.24322   0.00000  Uiso   1.00
H2972  H     0.74722   0.29767   0.27160   0.00000  Uiso   1.00
H2973  H     0.65547   0.26577   0.24075   0.00000  Uiso   1.00
H2974  H     0.80316   0.42293   0.34772   0.00000  Uiso   1.00
H2975  H     0.75078   0.41783   0.45138   0.00000  Uiso   1.00
H2976  H     0.69992   0.36097   0.42770   0.00000  Uiso   1.00
H2977  H     0.62599   0.25184   0.22329   0.00000  Uiso   1.00
H2978  H     0.81602   0.36214   0.28461   0.00000  Uiso   1.00
H2979  H     0.82521   0.38920   0.23719   0.00000  Uiso   1.00
C2980  C     0.83616   0.38633   0.38058   0.00000  Uiso   1.00
H2981  H     0.59308   0.33348   0.32691   0.00000  Uiso   1.00
C2982  C     0.69257   0.27175   0.44630   0.00000  Uiso   1.00
H2983  H     0.58760   0.38277   0.40522   0.00000  Uiso   1.00
C2984  C     0.79773   0.26711   0.24976   0.00000  Uiso   1.00
O2985  O     0.66851   0.42925   0.23875   0.00000  Uiso   1.00
C2986  C     0.59355   0.24157   0.40163   0.00000  Uiso   1.00
O2987  O     0.57844   0.47288   0.30472   0.00000  Uiso   1.00
H2988  H     0.71915   0.33538   0.44129   0.00000  Uiso   1.00
H2989  H     0.85659   0.39528   0.37261   0.00000  Uiso   1.00
C2990  C     0.67281   0.37825   0.22520   0.00000  Uiso   1.00
H2991  H     0.88888   0.33621   0.24222   0.00000  Uiso   1.00
C2992  C     0.69079   0.35599   0.22837   0.00000  Uiso   1.00
C2993  C     0.58243   0.46639   0.22966   0.00000  Uiso   1.00
C2994  C     0.60185   0.45801   0.37425   0.00000  Uiso   1.00
C2995  C     0.58309   0.46030   0.27982   0.00000  Uiso   1.00
C2996  C     0.59055   0.47150   0.35244   0.00000  Uiso   1.00
C2997  C     0.58836   0.45851   0.32679   0.00000  Uiso   1.00
C2998  C     0.72711   0.23395   0.47112   0.00000  Uiso   1.00
O2999  O     0.87641   0.45730   0.45656   0.00000  Uiso   1.00
H3000  H     0.77151   0.47099   0.44515   0.00000  Uiso   1.00
H3001  H     0.65041   0.44907   0.47209   0.00000  Uiso   1.00
C3002  C     0.61897   0.30498   0.22327   0.00000  Uiso   1.00
H3003  H     0.70175   0.39330   0.46963   0.00000  Uiso   1.00
C3004  C     0.88952   0.27418   0.38727   0.00000  Uiso   1.00
H3005  H     0.77989   0.22762   0.47167   0.00000  Uiso   1.00
C3006  C     0.68734   0.26331   0.47281   0.00000  Uiso   1.00
C3007  C     0.84610   0.32202   0.61076   0.00000  Uiso   1.00
N3008  N     0.59670   0.27572   0.59131   0.00000  Uiso   1.00
C3009  C     0.81452   0.29415   0.51235   0.00000  Uiso   1.00
C3010  C     0.79397   0.36990   0.53835   0.00000  Uiso   1.00
C3011  C     0.67261   0.40113   0.56913   0.00000  Uiso   1.00
H3012  H     0.70958   0.40918   0.54222   0.00000  Uiso   1.00
H3013  H     0.73176   0.39144   0.49182   0.00000  Uiso   1.00
C3014  C     0.87170   0.36745   0.69709   0.00000  Uiso   1.00
H3015  H     0.71059   0.25948   0.54448   0.00000  Uiso   1.00
N3016  N     0.75463   0.28904   0.64327   0.00000  Uiso   1.00
H3017  H     0.64074   0.39360   0.63472   0.00000  Uiso   1.00
C3018  C     0.64033   0.45443   0.67993   0.00000  Uiso   1.00
N3019  N     0.63762   0.31144   0.63664   0.00000  Uiso   1.00
C3020  C     0.84185   0.26539   0.54335   0.00000  Uiso   1.00
C3021  C     0.75263   0.39258   0.71198   0.00000  Uiso   1.00
C3022  C     0.88806   0.29875   0.49264   0.00000  Uiso   1.00
H3023  H     0.60418   0.41474   0.57462   0.00000  Uiso   1.00
C3024  C     0.86498   0.29208   0.50845   0.00000  Uiso   1.00
C3025  C     0.87857   0.35005   0.58286   0.00000  Uiso   1.00
C3026  C     0.60891   0.22563   0.67574   0.00000  Uiso   1.00
O3027  O     0.59214   0.34696   0.68075   0.00000  Uiso   1.00
C3028  C     0.68057   0.36178   0.59989   0.00000  Uiso   1.00
C3029  C     0.77844   0.39646   0.70229   0.00000  Uiso   1.00
C3030  C     0.65789   0.42339   0.71475   0.00000  Uiso   1.00
C3031  C     0.87133   0.37379   0.66960   0.00000  Uiso   1.00
C3032  C     0.82436   0.38397   0.70074   0.00000  Uiso   1.00
C3033  C     0.70836   0.36147   0.59182   0.00000  Uiso   1.00
C3034  C     0.59090   0.46091   0.69179   0.00000  Uiso   1.00
H3035  H     0.62877   0.35810   0.63044   0.00000  Uiso   1.00
H3036  H     0.67019   0.27097   0.48526   0.00000  Uiso   1.00
C3037  C     0.62092   0.30644   0.65322   0.00000  Uiso   1.00
C3038  C     0.80500   0.47083   0.68368   0.00000  Uiso   1.00
C3039  C     0.69336   0.24772   0.53854   0.00000  Uiso   1.00
H3040  H     0.69161   0.22970   0.61560   0.00000  Uiso   1.00
C3041  C     0.60466   0.43854   0.50493   0.00000  Uiso   1.00
N3042  N     0.82060   0.27345   0.69513   0.00000  Uiso   1.00
C3043  C     0.58652   0.32045   0.68894   0.00000  Uiso   1.00
N3044  N     0.79990   0.38342   0.51986   0.00000  Uiso   1.00
H3045  H     0.71350   0.36216   0.48503   0.00000  Uiso   1.00
H3046  H     0.85168   0.39477   0.63647   0.00000  Uiso   1.00
C3047  C     0.57049   0.31388   0.71202   0.00000  Uiso   1.00
O3048  O     0.72706   0.34363   0.60600   0.00000  Uiso   1.00
C3049  C     0.86477   0.23200   0.56874   0.00000  Uiso   1.00
C3050  C     0.64033   0.40663   0.52850   0.00000  Uiso   1.00
C3051  C     0.86371   0.32529   0.63367   0.00000  Uiso   1.00
C3052  C     0.75278   0.34079   0.59375   0.00000  Uiso   1.00
C3053  C     0.72923   0.40503   0.70001   0.00000  Uiso   1.00
H3054  H     0.67172   0.34681   0.61364   0.00000  Uiso   1.00
C3055  C     0.61416   0.47136   0.67211   0.00000  Uiso   1.00
H3056  H     0.60800   0.39654   0.67457   0.00000  Uiso   1.00
C3057  C     0.79330   0.26974   0.55255   0.00000  Uiso   1.00
C3058  C     0.76388   0.30429   0.62582   0.00000  Uiso   1.00
C3059  C     0.71761   0.37941   0.57070   0.00000  Uiso   1.00
C3060  C     0.77198   0.32358   0.60637   0.00000  Uiso   1.00
C3061  C     0.60073   0.30065   0.67348   0.00000  Uiso   1.00
C3062  C     0.79941   0.32342   0.59846   0.00000  Uiso   1.00
H3063  H     0.65728   0.39481   0.52057   0.00000  Uiso   1.00
C3064  C     0.76111   0.35766   0.57174   0.00000  Uiso   1.00
H3065  H     0.60435   0.38412   0.62920   0.00000  Uiso   1.00
O3066  O     0.84121   0.24644   0.56530   0.00000  Uiso   1.00
C3067  C     0.85362   0.33628   0.58556   0.00000  Uiso   1.00
C3068  C     0.83980   0.30312   0.49953   0.00000  Uiso   1.00
C3069  C     0.59335   0.41425   0.71328   0.00000  Uiso   1.00
C3070  C     0.73157   0.41889   0.67494   0.00000  Uiso   1.00
C3071  C     0.88501   0.34437   0.63209   0.00000  Uiso   1.00
H3072  H     0.62150   0.34325   0.57896   0.00000  Uiso   1.00
C3073  C     0.87719   0.45577   0.53276   0.00000  Uiso   1.00
H3074  H     0.64056   0.33419   0.69754   0.00000  Uiso   1.00
C3075  C     0.59681   0.39347   0.69378   0.00000  Uiso   1.00
C3076  C     0.85133   0.38991   0.65887   0.00000  Uiso   1.00
C3077  C     0.81641   0.27679   0.53634   0.00000  Uiso   1.00
C3078  C     0.76538   0.33456   0.47634   0.00000  Uiso   1.00
C3079  C     0.65546   0.44726   0.55390   0.00000  Uiso   1.00
H3080  H     0.85745   0.31585   0.65307   0.00000  Uiso   1.00
C3081  C     0.61409   0.36404   0.57583   0.00000  Uiso   1.00
C3082  C     0.63583   0.43274   0.51105   0.00000  Uiso   1.00
C3083  C     0.88534   0.45865   0.48456   0.00000  Uiso   1.00
C3084  C     0.86601   0.27247   0.52958   0.00000  Uiso   1.00
H3085  H     0.78161   0.24058   0.50623   0.00000  Uiso   1.00
C3086  C     0.85926   0.45035   0.55461   0.00000  Uiso   1.00
C3087  C     0.69524   0.32932   0.71340   0.00000  Uiso   1.00
C3088  C     0.63124   0.38428   0.59217   0.00000  Uiso   1.00
C3089  C     0.68249   0.41990   0.70155   0.00000  Uiso   1.00
O3090  O     0.60857   0.25141   0.66222   0.00000  Uiso   1.00
H3091  H     0.61350   0.36900   0.55328   0.00000  Uiso   1.00
C3092  C     0.64839   0.41680   0.55785   0.00000  Uiso   1.00
H3093  H     0.81221   0.47060   0.66162   0.00000  Uiso   1.00
C3094  C     0.57752   0.26608   0.70094   0.00000  Uiso   1.00
H3095  H     0.69482   0.31397   0.69600   0.00000  Uiso   1.00
O3096  O     0.70386   0.40340   0.71375   0.00000  Uiso   1.00
C3097  C     0.68677   0.43483   0.67665   0.00000  Uiso   1.00
C3098  C     0.66517   0.45277   0.66662   0.00000  Uiso   1.00
C3099  C     0.78754   0.35509   0.56114   0.00000  Uiso   1.00
C3100  C     0.58595   0.36686   0.70020   0.00000  Uiso   1.00
C3101  C     0.59460   0.27347   0.67735   0.00000  Uiso   1.00
C3102  C     0.75756   0.42087   0.66316   0.00000  Uiso   1.00
H3103  H     0.73468   0.23336   0.64475   0.00000  Uiso   1.00
C3104  C     0.69983   0.39905   0.56017   0.00000  Uiso   1.00
H3105  H     0.63155   0.42554   0.59674   0.00000  Uiso   1.00
H3106  H     0.57795   0.44776   0.68095   0.00000  Uiso   1.00
C3107  C     0.66242   0.38037   0.58610   0.00000  Uiso   1.00
H3108  H     0.74610   0.23083   0.59297   0.00000  Uiso   1.00
C3109  C     0.80663   0.33840   0.57490   0.00000  Uiso   1.00
N3110  N     0.77484   0.26379   0.56511   0.00000  Uiso   1.00
C3111  C     0.62561   0.37939   0.62386   0.00000  Uiso   1.00
C3112  C     0.64774   0.45588   0.52806   0.00000  Uiso   1.00
C3113  C     0.59793   0.25364   0.58301   0.00000  Uiso   1.00
C3114  C     0.59878   0.22652   0.57203   0.00000  Uiso   1.00
H3115  H     0.59204   0.44121   0.52316   0.00000  Uiso   1.00
H3116  H     0.67537   0.43062   0.48852   0.00000  Uiso   1.00
H3117  H     0.60067   0.45341   0.48946   0.00000  Uiso   1.00
C3118  C     0.65304   0.43125   0.48486   0.00000  Uiso   1.00
O3119  O     0.82085   0.30872   0.61343   0.00000  Uiso   1.00
N3120  N     0.84354   0.44735   0.57251   0.00000  Uiso   1.00
H3121  H     0.66874   0.45754   0.59495   0.00000  Uiso   1.00
O3122  O     0.83340   0.33926   0.56402   0.00000  Uiso   1.00
H3123  H     0.68800   0.23719   0.55689   0.00000  Uiso   1.00
O3124  O     0.80525   0.40820   0.66095   0.00000  Uiso   1.00
C3125  C     0.78077   0.40855   0.67520   0.00000  Uiso   1.00
O3126  O     0.57151   0.23991   0.70745   0.00000  Uiso   1.00
O3127  O     0.84082   0.43999   0.50128   0.00000  Uiso   1.00
H3128  H     0.88368   0.36179   0.56392   0.00000  Uiso   1.00
O3129  O     0.78883   0.30232   0.50497   0.00000  Uiso   1.00
H3130  H     0.62373   0.39195   0.52727   0.00000  Uiso   1.00
C3131  C     0.86698   0.45172   0.50617   0.00000  Uiso   1.00
O3132  O     0.74391   0.37756   0.55997   0.00000  Uiso   1.00
C3133  C     0.62597   0.41239   0.57974   0.00000  Uiso   1.00
O3134  O     0.71019   0.43381   0.66199   0.00000  Uiso   1.00
N3135  N     0.76015   0.44671   0.61678   0.00000  Uiso   1.00
C3136  C     0.79007   0.32430   0.48571   0.00000  Uiso   1.00
C3137  C     0.84902   0.37395   0.71277   0.00000  Uiso   1.00
C3138  C     0.75963   0.43503   0.63786   0.00000  Uiso   1.00
C3139  C     0.82652   0.39413   0.67373   0.00000  Uiso   1.00
H3140  H     0.59225   0.36349   0.58334   0.00000  Uiso   1.00
H3141  H     0.67441   0.26008   0.53486   0.00000  Uiso   1.00
H3142  H     0.78190   0.46666   0.68724   0.00000  Uiso   1.00
H3143  H     0.81824   0.45861   0.69599   0.00000  Uiso   1.00
H3144  H     0.79913   0.41326   0.48463   0.00000  Uiso   1.00
H3145  H     0.59447   0.42019   0.49509   0.00000  Uiso   1.00
O3146  O     0.80024   0.38424   0.71588   0.00000  Uiso   1.00
H3147  H     0.60044   0.45126   0.63647   0.00000  Uiso   1.00
C3148  C     0.63722   0.43963   0.70424   0.00000  Uiso   1.00
C3149  C     0.60603   0.44314   0.71182   0.00000  Uiso   1.00
C3150  C     0.81072   0.25237   0.70069   0.00000  Uiso   1.00
H3151  H     0.70792   0.45806   0.47313   0.00000  Uiso   1.00
C3152  C     0.56490   0.28678   0.71715   0.00000  Uiso   1.00
C3153  C     0.70379   0.24282   0.48500   0.00000  Uiso   1.00
H3154  H     0.74648   0.32646   0.48323   0.00000  Uiso   1.00
C3155  C     0.72071   0.38185   0.47473   0.00000  Uiso   1.00
H3156  H     0.67074   0.28134   0.72140   0.00000  Uiso   1.00
H3157  H     0.67016   0.46671   0.64942   0.00000  Uiso   1.00
C3158  C     0.70015   0.22926   0.51306   0.00000  Uiso   1.00
H3159  H     0.74028   0.22911   0.53133   0.00000  Uiso   1.00
C3160  C     0.66293   0.46625   0.57411   0.00000  Uiso   1.00
C3161  C     0.79946   0.22655   0.70813   0.00000  Uiso   1.00
H3162  H     0.69495   0.35033   0.70436   0.00000  Uiso   1.00
H3163  H     0.88122   0.31452   0.71755   0.00000  Uiso   1.00
O3164  O     0.83995   0.32276   0.47819   0.00000  Uiso   1.00
C3165  C     0.60405   0.47189   0.64254   0.00000  Uiso   1.00
O3166  O     0.55721   0.23743   0.54903   0.00000  Uiso   1.00
H3167  H     0.65027   0.36339   0.71612   0.00000  Uiso   1.00
C3168  C     0.64571   0.34205   0.71955   0.00000  Uiso   1.00
C3169  C     0.81487   0.33491   0.47343   0.00000  Uiso   1.00
C3170  C     0.83397   0.43496   0.47408   0.00000  Uiso   1.00
H3171  H     0.75313   0.46350   0.47557   0.00000  Uiso   1.00
H3172  H     0.64758   0.41145   0.47473   0.00000  Uiso   1.00
O3173  O     0.80914   0.41049   0.84936   0.00000  Uiso   1.00
H3174  H     0.66722   0.26894   0.90022   0.00000  Uiso   1.00
H3175  H     0.63033   0.23655   0.73610   0.00000  Uiso   1.00
C3176  C     0.79062   0.29467   0.85854   0.00000  Uiso   1.00
C3177  C     0.78055   0.26702   0.90296   0.00000  Uiso   1.00
C3178  C     0.67094   0.28375   0.76557   0.00000  Uiso   1.00
C3179  C     0.63859   0.39638   0.91360   0.00000  Uiso   1.00
C3180  C     0.83798   0.30267   0.86968   0.00000  Uiso   1.00
C3181  C     0.59007   0.27107   0.82500   0.00000  Uiso   1.00
H3182  H     0.72383   0.23680   0.93507   0.00000  Uiso   1.00
H3183  H     0.62396   0.44758   0.75189   0.00000  Uiso   1.00
H3184  H     0.84326   0.44156   0.77652   0.00000  Uiso   1.00
H3185  H     0.85036   0.43769   0.81103   0.00000  Uiso   1.00
H3186  H     0.62600   0.27426   0.77548   0.00000  Uiso   1.00
C3187  C     0.62757   0.22995   0.90480   0.00000  Uiso   1.00
C3188  C     0.59686   0.31945   0.86364   0.00000  Uiso   1.00
H3189  H     0.80686   0.22655   0.88228   0.00000  Uiso   1.00
H3190  H     0.69802   0.24841   0.89927   0.00000  Uiso   1.00
C3191  C     0.57281   0.43213   0.94143   0.00000  Uiso   1.00
C3192  C     0.84620   0.26860   0.90630   0.00000  Uiso   1.00
H3193  H     0.59668   0.44378   0.79816   0.00000  Uiso   1.00
C3194  C     0.74424   0.45740   0.89755   0.00000  Uiso   1.00
C3195  C     0.64263   0.39505   0.96316   0.00000  Uiso   1.00
C3196  C     0.58964   0.42593   0.78700   0.00000  Uiso   1.00
H3197  H     0.87031   0.33398   0.86411   0.00000  Uiso   1.00
H3198  H     0.68418   0.37721   0.75740   0.00000  Uiso   1.00
H3199  H     0.77798   0.31081   0.87155   0.00000  Uiso   1.00
C3200  C     0.76692   0.44891   0.76550   0.00000  Uiso   1.00
H3201  H     0.73247   0.28825   0.75678   0.00000  Uiso   1.00
H3202  H     0.77386   0.28773   0.84532   0.00000  Uiso   1.00
C3203  C     0.73730   0.24431   0.74751   0.00000  Uiso   1.00
C3204  C     0.70863   0.39303   0.83311   0.00000  Uiso   1.00
C3205  C     0.80002   0.27033   0.87678   0.00000  Uiso   1.00
C3206  C     0.81248   0.33538   0.83535   0.00000  Uiso   1.00
C3207  C     0.79365   0.45916   0.84782   0.00000  Uiso   1.00
C3208  C     0.67910   0.31024   0.77922   0.00000  Uiso   1.00
H3209  H     0.76053   0.42501   0.95558   0.00000  Uiso   1.00
H3210  H     0.78674   0.27022   0.78989   0.00000  Uiso   1.00
C3211  C     0.60244   0.33431   0.88837   0.00000  Uiso   1.00
H3212  H     0.76052   0.26017   0.89336   0.00000  Uiso   1.00
H3213  H     0.82468   0.27018   0.82074   0.00000  Uiso   1.00
H3214  H     0.84857   0.29717   0.81789   0.00000  Uiso   1.00
C3215  C     0.80220   0.46265   0.87428   0.00000  Uiso   1.00
O3216  O     0.57012   0.39903   0.87314   0.00000  Uiso   1.00
C3217  C     0.65960   0.22793   0.90952   0.00000  Uiso   1.00
C3218  C     0.81131   0.36020   0.84991   0.00000  Uiso   1.00
H3219  H     0.78240   0.23330   0.85312   0.00000  Uiso   1.00
H3220  H     0.86488   0.35958   0.95574   0.00000  Uiso   1.00
C3221  C     0.58251   0.40780   0.73899   0.00000  Uiso   1.00
O3222  O     0.79246   0.40613   0.79143   0.00000  Uiso   1.00
C3223  C     0.72239   0.26799   0.75663   0.00000  Uiso   1.00
C3224  C     0.78264   0.29211   0.79108   0.00000  Uiso   1.00
C3225  C     0.80295   0.38392   0.80700   0.00000  Uiso   1.00
N3226  N     0.74347   0.36232   0.75519   0.00000  Uiso   1.00
C3227  C     0.67032   0.32513   0.73275   0.00000  Uiso   1.00
C3228  C     0.81170   0.30523   0.79624   0.00000  Uiso   1.00
C3229  C     0.80504   0.35929   0.79250   0.00000  Uiso   1.00
C3230  C     0.80123   0.24124   0.86272   0.00000  Uiso   1.00
C3231  C     0.81701   0.30795   0.84711   0.00000  Uiso   1.00
H3232  H     0.56775   0.24220   0.85611   0.00000  Uiso   1.00
C3233  C     0.71639   0.41941   0.84059   0.00000  Uiso   1.00
H3234  H     0.69242   0.29847   0.82190   0.00000  Uiso   1.00
C3235  C     0.87316   0.27964   0.90920   0.00000  Uiso   1.00
C3236  C     0.83038   0.27982   0.88562   0.00000  Uiso   1.00
O3237  O     0.69845   0.38983   0.80587   0.00000  Uiso   1.00
C3238  C     0.69444   0.34079   0.81616   0.00000  Uiso   1.00
C3239  C     0.62540   0.37017   0.91246   0.00000  Uiso   1.00
C3240  C     0.80757   0.38550   0.83575   0.00000  Uiso   1.00
C3241  C     0.71001   0.44212   0.82289   0.00000  Uiso   1.00
C3242  C     0.57936   0.29792   0.91283   0.00000  Uiso   1.00
C3243  C     0.68842   0.31441   0.80607   0.00000  Uiso   1.00
C3244  C     0.80836   0.33445   0.80692   0.00000  Uiso   1.00
C3245  C     0.69244   0.36352   0.79846   0.00000  Uiso   1.00
H3246  H     0.83499   0.28859   0.76005   0.00000  Uiso   1.00
C3247  C     0.57619   0.41781   0.89340   0.00000  Uiso   1.00
C3248  C     0.82619   0.29247   0.82140   0.00000  Uiso   1.00
H3249  H     0.80128   0.36010   0.77040   0.00000  Uiso   1.00
C3250  C     0.77593   0.22498   0.72424   0.00000  Uiso   1.00
H3251  H     0.60046   0.28640   0.81129   0.00000  Uiso   1.00
H3252  H     0.57133   0.41442   0.79818   0.00000  Uiso   1.00
C3253  C     0.78786   0.43101   0.80683   0.00000  Uiso   1.00
N3254  N     0.72839   0.33515   0.91124   0.00000  Uiso   1.00
C3255  C     0.72613   0.35399   0.89638   0.00000  Uiso   1.00
C3256  C     0.72321   0.37587   0.87843   0.00000  Uiso   1.00
C3257  C     0.71195   0.37084   0.85198   0.00000  Uiso   1.00
C3258  C     0.64837   0.26685   0.78030   0.00000  Uiso   1.00
C3259  C     0.73158   0.40325   0.88503   0.00000  Uiso   1.00
O3260  O     0.70572   0.34408   0.84305   0.00000  Uiso   1.00
H3261  H     0.67497   0.24601   0.87219   0.00000  Uiso   1.00
C3262  C     0.75479   0.44312   0.94349   0.00000  Uiso   1.00
C3263  C     0.68471   0.35936   0.77078   0.00000  Uiso   1.00
H3264  H     0.65030   0.27318   0.80164   0.00000  Uiso   1.00
O3265  O     0.74593   0.40724   0.90974   0.00000  Uiso   1.00
C3266  C     0.67675   0.24912   0.89464   0.00000  Uiso   1.00
C3267  C     0.64446   0.40792   0.88715   0.00000  Uiso   1.00
N3268  N     0.65000   0.41678   0.86556   0.00000  Uiso   1.00
C3269  C     0.72660   0.42548   0.86612   0.00000  Uiso   1.00
H3270  H     0.57446   0.28774   0.93385   0.00000  Uiso   1.00
C3271  C     0.75054   0.43543   0.91570   0.00000  Uiso   1.00
H3272  H     0.85103   0.31674   0.77592   0.00000  Uiso   1.00
C3273  C     0.64718   0.40860   0.93840   0.00000  Uiso   1.00
H3274  H     0.76954   0.29919   0.80914   0.00000  Uiso   1.00
C3275  C     0.79674   0.43381   0.83487   0.00000  Uiso   1.00
C3276  C     0.62003   0.35736   0.93731   0.00000  Uiso   1.00
C3277  C     0.75410   0.47000   0.95370   0.00000  Uiso   1.00
H3278  H     0.77734   0.30012   0.77103   0.00000  Uiso   1.00
H3279  H     0.78861   0.24840   0.91458   0.00000  Uiso   1.00
C3280  C     0.86120   0.43915   0.79188   0.00000  Uiso   1.00
C3281  C     0.57273   0.38132   0.74489   0.00000  Uiso   1.00
C3282  C     0.57186   0.36097   0.72477   0.00000  Uiso   1.00
H3283  H     0.81686   0.35911   0.87321   0.00000  Uiso   1.00
H3284  H     0.66787   0.22757   0.81877   0.00000  Uiso   1.00
C3285  C     0.86360   0.31548   0.87600   0.00000  Uiso   1.00
H3286  H     0.83771   0.25092   0.91703   0.00000  Uiso   1.00
H3287  H     0.78027   0.28641   0.91738   0.00000  Uiso   1.00
C3288  C     0.67792   0.33341   0.76223   0.00000  Uiso   1.00
C3289  C     0.82981   0.30824   0.77052   0.00000  Uiso   1.00
H3290  H     0.69830   0.47206   0.94078   0.00000  Uiso   1.00
H3291  H     0.71446   0.32682   0.72650   0.00000  Uiso   1.00
C3292  C     0.65502   0.23566   0.77715   0.00000  Uiso   1.00
H3293  H     0.82145   0.32042   0.75404   0.00000  Uiso   1.00
H3294  H     0.58548   0.25220   0.81304   0.00000  Uiso   1.00
H3295  H     0.60795   0.41250   0.78847   0.00000  Uiso   1.00
C3296  C     0.69512   0.26328   0.76499   0.00000  Uiso   1.00
C3297  C     0.74773   0.37632   0.73558   0.00000  Uiso   1.00
O3298  O     0.61791   0.35916   0.88641   0.00000  Uiso   1.00
O3299  O     0.65716   0.43626   0.93832   0.00000  Uiso   1.00
N3300  N     0.76029   0.44495   0.74309   0.00000  Uiso   1.00
O3301  O     0.73498   0.45327   0.87143   0.00000  Uiso   1.00
N3302  N     0.70504   0.45990   0.80801   0.00000  Uiso   1.00
C3303  C     0.77518   0.45255   0.79280   0.00000  Uiso   1.00
C3304  C     0.56478   0.41390   0.92049   0.00000  Uiso   1.00
O3305  O     0.88929   0.26984   0.93016   0.00000  Uiso   1.00
H3306  H     0.61676   0.24759   0.91652   0.00000  Uiso   1.00
H3307  H     0.59638   0.44755   0.86676   0.00000  Uiso   1.00
C3308  C     0.88170   0.46261   0.79244   0.00000  Uiso   1.00
H3309  H     0.84726   0.37017   0.73475   0.00000  Uiso   1.00
H3310  H     0.63742   0.29296   0.73572   0.00000  Uiso   1.00
C3311  C     0.67246   0.44330   0.96238   0.00000  Uiso   1.00
C3312  C     0.58729   0.44324   0.88705   0.00000  Uiso   1.00
C3313  C     0.58312   0.43324   0.75711   0.00000  Uiso   1.00
O3314  O     0.76381   0.24843   0.73768   0.00000  Uiso   1.00
C3315  C     0.66728   0.22695   0.93959   0.00000  Uiso   1.00
H3316  H     0.87233   0.41965   0.78872   0.00000  Uiso   1.00
O3317  O     0.60660   0.33089   0.93813   0.00000  Uiso   1.00
H3318  H     0.60386   0.32551   0.84253   0.00000  Uiso   1.00
C3319  C     0.59723   0.32078   0.91322   0.00000  Uiso   1.00
C3320  C     0.88142   0.30251   0.89406   0.00000  Uiso   1.00
C3321  C     0.69253   0.46389   0.96063   0.00000  Uiso   1.00
C3322  C     0.60319   0.45237   0.74251   0.00000  Uiso   1.00
C3323  C     0.68512   0.23612   0.76755   0.00000  Uiso   1.00
H3324  H     0.60544   0.26250   0.83925   0.00000  Uiso   1.00
N3325  N     0.81032   0.46474   0.89634   0.00000  Uiso   1.00
C3326  C     0.63503   0.22390   0.75442   0.00000  Uiso   1.00
H3327  H     0.56950   0.42782   0.96628   0.00000  Uiso   1.00
C3328  C     0.85021   0.34656   0.96572   0.00000  Uiso   1.00
H3329  H     0.81837   0.24087   0.84796   0.00000  Uiso   1.00
C3330  C     0.57733   0.29877   0.86483   0.00000  Uiso   1.00
H3331  H     0.67006   0.24808   0.94959   0.00000  Uiso   1.00
H3332  H     0.62239   0.23302   0.88314   0.00000  Uiso   1.00
C3333  C     0.62794   0.36886   0.96244   0.00000  Uiso   1.00
H3334  H     0.65313   0.41350   0.73476   0.00000  Uiso   1.00
C3335  C     0.56743   0.28837   0.88951   0.00000  Uiso   1.00
H3336  H     0.62763   0.34084   0.73148   0.00000  Uiso   1.00
C3337  C     0.66237   0.29421   0.73750   0.00000  Uiso   1.00
C3338  C     0.58171   0.45806   0.93436   0.00000  Uiso   1.00
H3339  H     0.85263   0.32540   0.95540   0.00000  Uiso   1.00
H3340  H     0.82905   0.35458   0.96312   0.00000  Uiso   1.00
O3341  O     0.55981   0.33543   0.72924   0.00000  Uiso   1.00
H3342  H     0.88609   0.33827   0.74472   0.00000  Uiso   1.00
C3343  C     0.58830   0.46424   0.90689   0.00000  Uiso   1.00
H3344  H     0.63103   0.22650   0.81131   0.00000  Uiso   1.00
C3345  C     0.56529   0.28211   0.84165   0.00000  Uiso   1.00
H3346  H     0.56606   0.37799   0.76674   0.00000  Uiso   1.00
H3347  H     0.76797   0.23007   0.97064   0.00000  Uiso   1.00
C3348  C     0.73753   0.31601   1.03960   0.00000  Uiso   1.00
H3349  H     0.73966   0.31810   1.20469   0.00000  Uiso   1.00
C3350  C     0.61059   0.43655   1.08543   0.00000  Uiso   1.00
C3351  C     0.73963   0.43709   1.04444   0.00000  Uiso   1.00
H3352  H     0.62402   0.36763   1.09948   0.00000  Uiso   1.00
H3353  H     0.57024   0.24276   1.07335   0.00000  Uiso   1.00
H3354  H     0.61662   0.33301   1.07297   0.00000  Uiso   1.00
H3355  H     0.68013   0.30271   1.15434   0.00000  Uiso   1.00
C3356  C     0.83130   0.33032   1.01028   0.00000  Uiso   1.00
H3357  H     0.71369   0.28036   1.20825   0.00000  Uiso   1.00
C3358  C     0.75391   0.33174   1.12314   0.00000  Uiso   1.00
N3359  N     0.69440   0.37109   1.02495   0.00000  Uiso   1.00
H3360  H     0.58537   0.34901   1.05101   0.00000  Uiso   1.00
C3361  C     0.63447   0.25895   1.09491   0.00000  Uiso   1.00
N3362  N     0.75343   0.31029   1.11113   0.00000  Uiso   1.00
H3363  H     0.75606   0.26632   1.15992   0.00000  Uiso   1.00
H3364  H     0.61306   0.44702   1.06588   0.00000  Uiso   1.00
O3365  O     0.83597   0.45387   1.16764   0.00000  Uiso   1.00
N3366  N     0.62367   0.34058   1.00705   0.00000  Uiso   1.00
O3367  O     0.77344   0.28087   1.04951   0.00000  Uiso   1.00
H3368  H     0.69042   0.33747   1.21384   0.00000  Uiso   1.00
C3369  C     0.75418   0.42964   1.18634   0.00000  Uiso   1.00
C3370  C     0.80762   0.36734   1.20466   0.00000  Uiso   1.00
C3371  C     0.62316   0.40818   1.08157   0.00000  Uiso   1.00
C3372  C     0.73754   0.37804   1.13129   0.00000  Uiso   1.00
C3373  C     0.60207   0.29600   1.09140   0.00000  Uiso   1.00
C3374  C     0.75488   0.35704   1.13764   0.00000  Uiso   1.00
N3375  N     0.87146   0.40663   1.20871   0.00000  Uiso   1.00
H3376  H     0.86907   0.35250   1.06770   0.00000  Uiso   1.00
C3377  C     0.73810   0.40322   1.14645   0.00000  Uiso   1.00
H3378  H     0.67216   0.37354   1.08009   0.00000  Uiso   1.00
C3379  C     0.85598   0.34432   0.99688   0.00000  Uiso   1.00
O3380  O     0.71723   0.37408   1.11080   0.00000  Uiso   1.00
C3381  C     0.75754   0.40652   1.16859   0.00000  Uiso   1.00
O3382  O     0.72171   0.42550   1.14221   0.00000  Uiso   1.00
C3383  C     0.84508   0.40573   1.16309   0.00000  Uiso   1.00
C3384  C     0.74570   0.29022   1.04970   0.00000  Uiso   1.00
C3385  C     0.69776   0.39496   1.10927   0.00000  Uiso   1.00
C3386  C     0.77325   0.36059   1.15980   0.00000  Uiso   1.00
C3387  C     0.69170   0.30868   1.05550   0.00000  Uiso   1.00
C3388  C     0.69929   0.41934   1.12566   0.00000  Uiso   1.00
O3389  O     0.79061   0.33859   1.16558   0.00000  Uiso   1.00
C3390  C     0.81422   0.40573   1.08012   0.00000  Uiso   1.00
H3391  H     0.58808   0.43452   1.09080   0.00000  Uiso   1.00
H3392  H     0.55856   0.28787   1.13532   0.00000  Uiso   1.00
C3393  C     0.75531   0.46847   1.00555   0.00000  Uiso   1.00
H3394  H     0.66687   0.24730   1.14278   0.00000  Uiso   1.00
C3395  C     0.70828   0.45324   1.00607   0.00000  Uiso   1.00
C3396  C     0.56209   0.28056   1.11552   0.00000  Uiso   1.00
O3397  O     0.79079   0.22930   1.14356   0.00000  Uiso   1.00
C3398  C     0.72573   0.27268   1.05984   0.00000  Uiso   1.00
C3399  C     0.81953   0.29183   1.03936   0.00000  Uiso   1.00
H3400  H     0.85282   0.27177   1.17510   0.00000  Uiso   1.00
C3401  C     0.60867   0.38443   1.09535   0.00000  Uiso   1.00
H3402  H     0.56072   0.36182   1.03014   0.00000  Uiso   1.00
C3403  C     0.80658   0.34287   1.18896   0.00000  Uiso   1.00
C3404  C     0.86949   0.25758   1.18382   0.00000  Uiso   1.00
H3405  H     0.59105   0.37607   1.08307   0.00000  Uiso   1.00
C3406  C     0.67782   0.43944   1.12516   0.00000  Uiso   1.00
C3407  C     0.88409   0.31274   1.05442   0.00000  Uiso   1.00
C3408  C     0.67427   0.39199   1.09304   0.00000  Uiso   1.00
C3409  C     0.69856   0.28117   1.06358   0.00000  Uiso   1.00
H3410  H     0.88043   0.29981   1.21622   0.00000  Uiso   1.00
C3411  C     0.84289   0.23572   1.12768   0.00000  Uiso   1.00
N3412  N     0.80741   0.40792   1.05759   0.00000  Uiso   1.00
C3413  C     0.74597   0.24681   1.16179   0.00000  Uiso   1.00
H3414  H     0.72312   0.26539   0.97342   0.00000  Uiso   1.00
O3415  O     0.81175   0.45214   1.11284   0.00000  Uiso   1.00
C3416  C     0.65429   0.27582   1.08218   0.00000  Uiso   1.00
H3417  H     0.71720   0.29805   1.15170   0.00000  Uiso   1.00
C3418  C     0.81825   0.22670   1.21738   0.00000  Uiso   1.00
H3419  H     0.79642   0.35797   0.99689   0.00000  Uiso   1.00
O3420  O     0.65308   0.37656   1.20468   0.00000  Uiso   1.00
H3421  H     0.69078   0.25506   1.21679   0.00000  Uiso   1.00
H3422  H     0.82590   0.27366   1.05161   0.00000  Uiso   1.00
C3423  C     0.69341   0.27381   1.20220   0.00000  Uiso   1.00
C3424  C     0.59172   0.24503   1.14088   0.00000  Uiso   1.00
C3425  C     0.85981   0.40592   1.18780   0.00000  Uiso   1.00
H3426  H     0.61451   0.22689   1.18465   0.00000  Uiso   1.00
C3427  C     0.85833   0.37217   1.00885   0.00000  Uiso   1.00
C3428  C     0.82313   0.40453   1.10842   0.00000  Uiso   1.00
N3429  N     0.85024   0.25688   1.12221   0.00000  Uiso   1.00
C3430  C     0.73273   0.24652   1.06782   0.00000  Uiso   1.00
C3431  C     0.83933   0.30755   1.02629   0.00000  Uiso   1.00
C3432  C     0.62181   0.31169   1.07873   0.00000  Uiso   1.00
C3433  C     0.60827   0.26889   1.09859   0.00000  Uiso   1.00
F3434  F     0.86008   0.35886   1.15707   0.00000  Uiso   1.00
H3435  H     0.57205   0.32682   1.02291   0.00000  Uiso   1.00
C3436  C     0.80359   0.33986   1.01039   0.00000  Uiso   1.00
N3437  N     0.75239   0.44767   1.20118   0.00000  Uiso   1.00
O3438  O     0.66662   0.32020   1.06089   0.00000  Uiso   1.00
C3439  C     0.86470   0.25748   1.21550   0.00000  Uiso   1.00
H3440  H     0.75824   0.43973   1.05748   0.00000  Uiso   1.00
C3441  C     0.75063   0.33003   1.21914   0.00000  Uiso   1.00
H3442  H     0.67947   0.29160   1.20582   0.00000  Uiso   1.00
H3443  H     0.67820   0.45979   1.13612   0.00000  Uiso   1.00
C3444  C     0.58319   0.25662   1.11309   0.00000  Uiso   1.00
C3445  C     0.83582   0.42965   1.15099   0.00000  Uiso   1.00
H3446  H     0.69177   0.25083   0.98732   0.00000  Uiso   1.00
H3447  H     0.63845   0.41148   1.03803   0.00000  Uiso   1.00
C3448  C     0.79183   0.29890   1.03567   0.00000  Uiso   1.00
C3449  C     0.56831   0.34265   1.03949   0.00000  Uiso   1.00
H3450  H     0.72400   0.43483   1.06074   0.00000  Uiso   1.00
C3451  C     0.71049   0.46731   0.98175   0.00000  Uiso   1.00
O3452  O     0.79343   0.39041   1.19643   0.00000  Uiso   1.00
H3453  H     0.56555   0.28667   1.05181   0.00000  Uiso   1.00
H3454  H     0.60800   0.25835   1.14956   0.00000  Uiso   1.00
H3455  H     0.63566   0.37877   1.05209   0.00000  Uiso   1.00
C3456  C     0.73173   0.46004   1.02558   0.00000  Uiso   1.00
H3457  H     0.68116   0.42342   1.02798   0.00000  Uiso   1.00
O3458  O     0.59730   0.42603   1.19950   0.00000  Uiso   1.00
H3459  H     0.88260   0.27059   0.99977   0.00000  Uiso   1.00
H3460  H     0.83944   0.38462   1.00572   0.00000  Uiso   1.00
C3461  C     0.70186   0.35010   1.03267   0.00000  Uiso   1.00
H3462  H     0.86418   0.26084   1.02737   0.00000  Uiso   1.00
H3463  H     0.76072   0.22535   1.00469   0.00000  Uiso   1.00
H3464  H     0.72076   0.25354   1.00956   0.00000  Uiso   1.00
C3465  C     0.78284   0.32445   1.02375   0.00000  Uiso   1.00
H3466  H     0.62373   0.41764   1.15395   0.00000  Uiso   1.00
F3467  F     0.83379   0.35509   1.10647   0.00000  Uiso   1.00
H3468  H     0.60393   0.40016   1.04251   0.00000  Uiso   1.00
H3469  H     0.56423   0.32989   1.15096   0.00000  Uiso   1.00
H3470  H     0.73927   0.41825   1.03259   0.00000  Uiso   1.00
C3471  C     0.82296   0.42787   1.12489   0.00000  Uiso   1.00
C3472  C     0.60005   0.44604   1.17920   0.00000  Uiso   1.00
C3473  C     0.69712   0.28675   1.15100   0.00000  Uiso   1.00
H3474  H     0.65253   0.25265   1.17589   0.00000  Uiso   1.00
C3475  C     0.62540   0.39893   1.05158   0.00000  Uiso   1.00
O3476  O     0.68034   0.26423   1.07615   0.00000  Uiso   1.00
O3477  O     0.75601   0.33331   1.02430   0.00000  Uiso   1.00
C3478  C     0.82168   0.31946   1.19818   0.00000  Uiso   1.00
C3479  C     0.77536   0.38596   1.17474   0.00000  Uiso   1.00
C3480  C     0.71384   0.24949   0.98833   0.00000  Uiso   1.00
H3481  H     0.69543   0.27773   1.13047   0.00000  Uiso   1.00
C3482  C     0.87089   0.30528   1.02583   0.00000  Uiso   1.00
C3483  C     0.88456   0.33522   1.07180   0.00000  Uiso   1.00
C3484  C     0.71891   0.24212   1.16890   0.00000  Uiso   1.00
C3485  C     0.64836   0.30240   1.07438   0.00000  Uiso   1.00
C3486  C     0.67002   0.24602   1.16459   0.00000  Uiso   1.00
O3487  O     0.64886   0.40591   0.98919   0.00000  Uiso   1.00
C3488  C     0.68588   0.43554   1.00891   0.00000  Uiso   1.00
C3489  C     0.65463   0.43505   1.10889   0.00000  Uiso   1.00
C3490  C     0.84635   0.38149   1.14726   0.00000  Uiso   1.00
C3491  C     0.57254   0.23244   1.09470   0.00000  Uiso   1.00
C3492  C     0.61698   0.45662   1.13369   0.00000  Uiso   1.00
C3493  C     0.61427   0.43875   1.15534   0.00000  Uiso   1.00
H3494  H     0.60942   0.29582   1.20545   0.00000  Uiso   1.00
H3495  H     0.60069   0.38991   1.11632   0.00000  Uiso   1.00
C3496  C     0.65300   0.41087   1.09421   0.00000  Uiso   1.00
C3497  C     0.71133   0.32515   1.04395   0.00000  Uiso   1.00
C3498  C     0.83537   0.38071   1.12009   0.00000  Uiso   1.00
H3499  H     0.75524   0.34881   1.20889   0.00000  Uiso   1.00
C3500  C     0.62844   0.45270   1.10496   0.00000  Uiso   1.00
H3501  H     0.76770   0.44997   0.99775   0.00000  Uiso   1.00
C3502  C     0.69571   0.26365   1.17251   0.00000  Uiso   1.00
H3503  H     0.63609   0.23764   1.10069   0.00000  Uiso   1.00
H3504  H     0.86071   0.37222   1.03219   0.00000  Uiso   1.00
H3505  H     0.82094   0.29996   1.18540   0.00000  Uiso   1.00
C3506  C     0.62610   0.35296   0.98695   0.00000  Uiso   1.00
C3507  C     0.66898   0.42848   0.98672   0.00000  Uiso   1.00
H3508  H     0.87453   0.38386   0.99882   0.00000  Uiso   1.00
H3509  H     0.76991   0.31949   1.22140   0.00000  Uiso   1.00
C3510  C     0.88033   0.32611   1.00386   0.00000  Uiso   1.00
H3511  H     0.63727   0.36784   1.21222   0.00000  Uiso   1.00
C3512  C     0.87829   0.27491   1.02186   0.00000  Uiso   1.00
H3513  H     0.88911   0.31556   0.98717   0.00000  Uiso   1.00
C3514  C     0.76381   0.22453   1.15441   0.00000  Uiso   1.00
C3515  C     0.55844   0.33055   1.10655   0.00000  Uiso   1.00
H3516  H     0.60150   0.22388   1.13933   0.00000  Uiso   1.00
C3517  C     0.57032   0.30348   1.09616   0.00000  Uiso   1.00
H3518  H     0.88821   0.23618   1.06274   0.00000  Uiso   1.00
H3519  H     0.61660   0.47167   1.02317   0.00000  Uiso   1.00
H3520  H     0.57401   0.24127   1.15483   0.00000  Uiso   1.00
H3521  H     0.62019   0.46800   0.97391   0.00000  Uiso   1.00
H3522  H     0.86825   0.23681   1.17628   0.00000  Uiso   1.00
H3523  H     0.64085   0.31097   1.21565   0.00000  Uiso   1.00
N3524  N     0.73939   0.22401   1.07355   0.00000  Uiso   1.00
C3525  C     0.55639   0.34055   1.13295   0.00000  Uiso   1.00
C3526  C     0.83461   0.25014   1.22267   0.00000  Uiso   1.00
C3527  C     0.64223   0.69872   0.37539   0.00000  Uiso   1.00
H3528  H     0.58683   0.48139   0.43315   0.00000  Uiso   1.00
O3529  O     0.69322   0.54524   0.35992   0.00000  Uiso   1.00
C3530  C     0.75110   0.52940   0.46277   0.00000  Uiso   1.00
H3531  H     0.64459   0.51957   0.30366   0.00000  Uiso   1.00
C3532  C     0.70825   0.53691   0.33635   0.00000  Uiso   1.00
O3533  O     0.80518   0.71282   0.23241   0.00000  Uiso   1.00
C3534  C     0.57510   0.50441   0.25925   0.00000  Uiso   1.00
C3535  C     0.84965   0.66524   0.33993   0.00000  Uiso   1.00
C3536  C     0.57880   0.47628   0.25675   0.00000  Uiso   1.00
C3537  C     0.62761   0.56019   0.26606   0.00000  Uiso   1.00
C3538  C     0.82157   0.67235   0.34427   0.00000  Uiso   1.00
C3539  C     0.71764   0.56446   0.43171   0.00000  Uiso   1.00
O3540  O     0.73200   0.62543   0.28785   0.00000  Uiso   1.00
H3541  H     0.63129   0.70353   0.39510   0.00000  Uiso   1.00
C3542  C     0.81225   0.50839   0.44479   0.00000  Uiso   1.00
H3543  H     0.59452   0.54929   0.40409   0.00000  Uiso   1.00
N3544  N     0.75085   0.59273   0.35283   0.00000  Uiso   1.00
C3545  C     0.82483   0.50588   0.28724   0.00000  Uiso   1.00
C3546  C     0.64022   0.51232   0.40246   0.00000  Uiso   1.00
H3547  H     0.63512   0.53806   0.33392   0.00000  Uiso   1.00
H3548  H     0.59286   0.64519   0.30390   0.00000  Uiso   1.00
C3549  C     0.79902   0.51800   0.33709   0.00000  Uiso   1.00
N3550  N     0.82911   0.69318   0.45022   0.00000  Uiso   1.00
C3551  C     0.85297   0.65097   0.38817   0.00000  Uiso   1.00
O3552  O     0.68500   0.49218   0.33335   0.00000  Uiso   1.00
O3553  O     0.63651   0.65094   0.43990   0.00000  Uiso   1.00
C3554  C     0.63061   0.53541   0.31110   0.00000  Uiso   1.00
H3555  H     0.65513   0.60295   0.33946   0.00000  Uiso   1.00
C3556  C     0.77340   0.55426   0.26380   0.00000  Uiso   1.00
H3557  H     0.88652   0.65255   0.28472   0.00000  Uiso   1.00
C3558  C     0.73841   0.57650   0.44939   0.00000  Uiso   1.00
C3559  C     0.71529   0.50481   0.29948   0.00000  Uiso   1.00
C3560  C     0.74092   0.57596   0.34007   0.00000  Uiso   1.00
C3561  C     0.72936   0.48797   0.44682   0.00000  Uiso   1.00
H3562  H     0.81658   0.65739   0.41359   0.00000  Uiso   1.00
C3563  C     0.67106   0.58215   0.27422   0.00000  Uiso   1.00
H3564  H     0.58818   0.49496   0.35498   0.00000  Uiso   1.00
H3565  H     0.70738   0.59370   0.25076   0.00000  Uiso   1.00
O3566  O     0.69958   0.57976   0.41630   0.00000  Uiso   1.00
C3567  C     0.61739   0.51470   0.42443   0.00000  Uiso   1.00
H3568  H     0.61043   0.52553   0.31036   0.00000  Uiso   1.00
C3569  C     0.71504   0.61727   0.44610   0.00000  Uiso   1.00
H3570  H     0.60743   0.60212   0.29565   0.00000  Uiso   1.00
C3571  C     0.57475   0.66588   0.26916   0.00000  Uiso   1.00
N3572  N     0.84792   0.49172   0.24215   0.00000  Uiso   1.00
O3573  O     0.78149   0.67513   0.37512   0.00000  Uiso   1.00
C3574  C     0.86128   0.56769   0.30745   0.00000  Uiso   1.00
C3575  C     0.85332   0.52388   0.46741   0.00000  Uiso   1.00
O3576  O     0.74340   0.51267   0.25995   0.00000  Uiso   1.00
C3577  C     0.57509   0.65579   0.29637   0.00000  Uiso   1.00
H3578  H     0.66209   0.61919   0.22930   0.00000  Uiso   1.00
N3579  N     0.71289   0.66918   0.40046   0.00000  Uiso   1.00
H3580  H     0.61438   0.51008   0.46949   0.00000  Uiso   1.00
H3581  H     0.63696   0.68147   0.23504   0.00000  Uiso   1.00
H3582  H     0.84108   0.60172   0.23770   0.00000  Uiso   1.00
H3583  H     0.58778   0.57054   0.29922   0.00000  Uiso   1.00
H3584  H     0.61858   0.53894   0.26270   0.00000  Uiso   1.00
C3585  C     0.72429   0.66494   0.37941   0.00000  Uiso   1.00
C3586  C     0.69104   0.61717   0.31626   0.00000  Uiso   1.00
C3587  C     0.60274   0.54398   0.42376   0.00000  Uiso   1.00
H3588  H     0.64544   0.49284   0.24157   0.00000  Uiso   1.00
C3589  C     0.65789   0.53141   0.39077   0.00000  Uiso   1.00
C3590  C     0.73498   0.52138   0.28674   0.00000  Uiso   1.00
H3591  H     0.61747   0.62765   0.26435   0.00000  Uiso   1.00
C3592  C     0.60196   0.63112   0.24755   0.00000  Uiso   1.00
H3593  H     0.59622   0.71935   0.33325   0.00000  Uiso   1.00
C3594  C     0.78462   0.52423   0.36169   0.00000  Uiso   1.00
O3595  O     0.77033   0.47922   0.33301   0.00000  Uiso   1.00
C3596  C     0.76713   0.65408   0.30506   0.00000  Uiso   1.00
C3597  C     0.65745   0.47897   0.37026   0.00000  Uiso   1.00
H3598  H     0.58607   0.54393   0.44011   0.00000  Uiso   1.00
H3599  H     0.63972   0.69478   0.31782   0.00000  Uiso   1.00
N3600  N     0.77278   0.52906   0.38153   0.00000  Uiso   1.00
C3601  C     0.61940   0.68265   0.25023   0.00000  Uiso   1.00
O3602  O     0.85386   0.51141   0.41884   0.00000  Uiso   1.00
H3603  H     0.58271   0.49895   0.40192   0.00000  Uiso   1.00
C3604  C     0.84801   0.57261   0.33333   0.00000  Uiso   1.00
C3605  C     0.83965   0.71471   0.44920   0.00000  Uiso   1.00
C3606  C     0.60573   0.58119   0.30527   0.00000  Uiso   1.00
C3607  C     0.70588   0.47911   0.46533   0.00000  Uiso   1.00
H3608  H     0.64331   0.49239   0.45091   0.00000  Uiso   1.00
H3609  H     0.85804   0.66836   0.31892   0.00000  Uiso   1.00
C3610  C     0.83776   0.49865   0.26286   0.00000  Uiso   1.00
H3611  H     0.67422   0.52055   0.26256   0.00000  Uiso   1.00
H3612  H     0.79995   0.50418   0.42542   0.00000  Uiso   1.00
C3613  C     0.72892   0.55435   0.32412   0.00000  Uiso   1.00
N3614  N     0.79491   0.64657   0.26062   0.00000  Uiso   1.00
C3615  C     0.66286   0.64088   0.44175   0.00000  Uiso   1.00
C3616  C     0.75666   0.48024   0.46078   0.00000  Uiso   1.00
C3617  C     0.66973   0.61776   0.42555   0.00000  Uiso   1.00
C3618  C     0.79297   0.57121   0.25074   0.00000  Uiso   1.00
H3619  H     0.62849   0.68130   0.27093   0.00000  Uiso   1.00
C3620  C     0.86690   0.60704   0.41956   0.00000  Uiso   1.00
C3621  C     0.59836   0.49081   0.41575   0.00000  Uiso   1.00
H3622  H     0.58438   0.61779   0.24989   0.00000  Uiso   1.00
N3623  N     0.57050   0.60887   0.39829   0.00000  Uiso   1.00
H3624  H     0.80369   0.58738   0.26237   0.00000  Uiso   1.00
C3625  C     0.66676   0.60113   0.31966   0.00000  Uiso   1.00
C3626  C     0.65642   0.56323   0.25376   0.00000  Uiso   1.00
H3627  H     0.61715   0.55907   0.43123   0.00000  Uiso   1.00
C3628  C     0.76233   0.68589   0.22321   0.00000  Uiso   1.00
H3629  H     0.84231   0.59790   0.36765   0.00000  Uiso   1.00
C3630  C     0.82689   0.66171   0.39367   0.00000  Uiso   1.00
H3631  H     0.84630   0.60933   0.42789   0.00000  Uiso   1.00
C3632  C     0.74267   0.54652   0.29964   0.00000  Uiso   1.00
C3633  C     0.77956   0.66657   0.32626   0.00000  Uiso   1.00
C3634  C     0.82032   0.53548   0.32642   0.00000  Uiso   1.00
C3635  C     0.83329   0.52920   0.30100   0.00000  Uiso   1.00
O3636  O     0.82516   0.55853   0.34195   0.00000  Uiso   1.00
O3637  O     0.76475   0.56156   0.29021   0.00000  Uiso   1.00
C3638  C     0.63067   0.56446   0.29657   0.00000  Uiso   1.00
H3639  H     0.58315   0.65627   0.45520   0.00000  Uiso   1.00
C3640  C     0.78185   0.64971   0.28057   0.00000  Uiso   1.00
N3641  N     0.63429   0.60017   0.38984   0.00000  Uiso   1.00
C3642  C     0.70829   0.63928   0.46276   0.00000  Uiso   1.00
C3643  C     0.75576   0.55785   0.46321   0.00000  Uiso   1.00
C3644  C     0.80329   0.48929   0.29668   0.00000  Uiso   1.00
H3645  H     0.70036   0.52784   0.41546   0.00000  Uiso   1.00
C3646  C     0.71541   0.53555   0.42979   0.00000  Uiso   1.00
H3647  H     0.70535   0.48442   0.40883   0.00000  Uiso   1.00
O3648  O     0.74123   0.60481   0.44877   0.00000  Uiso   1.00
C3649  C     0.70458   0.51099   0.32448   0.00000  Uiso   1.00
C3650  C     0.69537   0.60524   0.42827   0.00000  Uiso   1.00
C3651  C     0.67491   0.52540   0.36925   0.00000  Uiso   1.00
O3652  O     0.85394   0.54640   0.28975   0.00000  Uiso   1.00
H3653  H     0.64358   0.52807   0.45747   0.00000  Uiso   1.00
C3654  C     0.65055   0.60849   0.40645   0.00000  Uiso   1.00
C3655  C     0.74088   0.64260   0.30855   0.00000  Uiso   1.00
C3656  C     0.80921   0.67018   0.37145   0.00000  Uiso   1.00
C3657  C     0.62824   0.66248   0.46439   0.00000  Uiso   1.00
C3658  C     0.76671   0.66725   0.35165   0.00000  Uiso   1.00
C3659  C     0.73849   0.65943   0.35462   0.00000  Uiso   1.00
H3660  H     0.65960   0.55425   0.39744   0.00000  Uiso   1.00
H3661  H     0.69613   0.54573   0.24773   0.00000  Uiso   1.00
N3662  N     0.57186   0.52850   0.26028   0.00000  Uiso   1.00
H3663  H     0.60326   0.58429   0.32789   0.00000  Uiso   1.00
C3664  C     0.63928   0.48622   0.39021   0.00000  Uiso   1.00
C3665  C     0.63073   0.51139   0.45349   0.00000  Uiso   1.00
C3666  C     0.65669   0.58403   0.29921   0.00000  Uiso   1.00
C3667  C     0.70561   0.61339   0.29104   0.00000  Uiso   1.00
C3668  C     0.72494   0.64722   0.33275   0.00000  Uiso   1.00
C3669  C     0.59587   0.66279   0.24565   0.00000  Uiso   1.00
O3670  O     0.75010   0.69165   0.24859   0.00000  Uiso   1.00
C3671  C     0.67185   0.49932   0.35732   0.00000  Uiso   1.00
O3672  O     0.69923   0.63521   0.33727   0.00000  Uiso   1.00
C3673  C     0.69539   0.59647   0.26974   0.00000  Uiso   1.00
C3674  C     0.79154   0.49439   0.32221   0.00000  Uiso   1.00
C3675  C     0.76124   0.53267   0.24773   0.00000  Uiso   1.00
O3676  O     0.80546   0.67722   0.32202   0.00000  Uiso   1.00
H3677  H     0.61420   0.57425   0.25391   0.00000  Uiso   1.00
C3678  C     0.85512   0.59520   0.34911   0.00000  Uiso   1.00
C3679  C     0.73069   0.51836   0.44585   0.00000  Uiso   1.00
H3680  H     0.67277   0.70433   0.32885   0.00000  Uiso   1.00
C3681  C     0.84029   0.51451   0.44267   0.00000  Uiso   1.00
C3682  C     0.76249   0.71426   0.26221   0.00000  Uiso   1.00
C3683  C     0.86706   0.72008   0.23221   0.00000  Uiso   1.00
H3684  H     0.60977   0.62471   0.22796   0.00000  Uiso   1.00
C3685  C     0.70475   0.48292   0.28398   0.00000  Uiso   1.00
C3686  C     0.65126   0.71100   0.32639   0.00000  Uiso   1.00
H3687  H     0.87077   0.66271   0.44347   0.00000  Uiso   1.00
C3688  C     0.68116   0.64973   0.46155   0.00000  Uiso   1.00
C3689  C     0.87897   0.52053   0.36912   0.00000  Uiso   1.00
C3690  C     0.67425   0.53842   0.24797   0.00000  Uiso   1.00
H3691  H     0.63291   0.67776   0.36876   0.00000  Uiso   1.00
H3692  H     0.66502   0.69417   0.37670   0.00000  Uiso   1.00
C3693  C     0.86470   0.65316   0.36173   0.00000  Uiso   1.00
H3694  H     0.86689   0.58901   0.40563   0.00000  Uiso   1.00
H3695  H     0.88276   0.60391   0.43503   0.00000  Uiso   1.00
O3696  O     0.88049   0.53198   0.46868   0.00000  Uiso   1.00
C3697  C     0.79757   0.51232   0.46873   0.00000  Uiso   1.00
H3698  H     0.85881   0.71604   0.25284   0.00000  Uiso   1.00
H3699  H     0.61300   0.70454   0.24848   0.00000  Uiso   1.00
C3700  C     0.87554   0.63495   0.40617   0.00000  Uiso   1.00
H3701  H     0.72824   0.71778   0.29033   0.00000  Uiso   1.00
H3702  H     0.55994   0.71188   0.42382   0.00000  Uiso   1.00
C3703  C     0.88794   0.65573   0.42783   0.00000  Uiso   1.00
N3704  N     0.86782   0.51365   0.34920   0.00000  Uiso   1.00
C3705  C     0.87803   0.61013   0.34246   0.00000  Uiso   1.00
C3706  C     0.87879   0.52515   0.41765   0.00000  Uiso   1.00
C3707  C     0.88209   0.58594   0.29802   0.00000  Uiso   1.00
C3708  C     0.72523   0.47660   0.41810   0.00000  Uiso   1.00
C3709  C     0.63918   0.72136   0.35429   0.00000  Uiso   1.00
H3710  H     0.68716   0.47798   0.45388   0.00000  Uiso   1.00
H3711  H     0.74268   0.48151   0.40346   0.00000  Uiso   1.00
C3712  C     0.59940   0.66242   0.47025   0.00000  Uiso   1.00
C3713  C     0.65620   0.57417   0.22426   0.00000  Uiso   1.00
C3714  C     0.78964   0.72255   0.25555   0.00000  Uiso   1.00
C3715  C     0.80023   0.56731   0.22339   0.00000  Uiso   1.00
H3716  H     0.62001   0.51363   0.22534   0.00000  Uiso   1.00
O3717  O     0.70395   0.60815   0.60696   0.00000  Uiso   1.00
H3718  H     0.60678   0.51656   0.68170   0.00000  Uiso   1.00
C3719  C     0.73872   0.70447   0.61867   0.00000  Uiso   1.00
C3720  C     0.81225   0.54931   0.63317   0.00000  Uiso   1.00
O3721  O     0.67542   0.51285   0.58697   0.00000  Uiso   1.00
H3722  H     0.77867   0.56291   0.51684   0.00000  Uiso   1.00
C3723  C     0.73059   0.71518   0.56828   0.00000  Uiso   1.00
C3724  C     0.79186   0.57252   0.62861   0.00000  Uiso   1.00
C3725  C     0.63388   0.57153   0.64213   0.00000  Uiso   1.00
H3726  H     0.56412   0.71621   0.55470   0.00000  Uiso   1.00
C3727  C     0.86853   0.54485   0.66787   0.00000  Uiso   1.00
C3728  C     0.79262   0.51804   0.51821   0.00000  Uiso   1.00
H3729  H     0.82363   0.51147   0.55273   0.00000  Uiso   1.00
H3730  H     0.74543   0.51140   0.51525   0.00000  Uiso   1.00
C3731  C     0.84328   0.53155   0.67216   0.00000  Uiso   1.00
C3732  C     0.56542   0.66436   0.53951   0.00000  Uiso   1.00
C3733  C     0.84011   0.50780   0.68879   0.00000  Uiso   1.00
O3734  O     0.69010   0.62292   0.55143   0.00000  Uiso   1.00
H3735  H     0.60476   0.62984   0.57318   0.00000  Uiso   1.00
H3736  H     0.86656   0.47669   0.70904   0.00000  Uiso   1.00
C3737  C     0.81053   0.50126   0.69194   0.00000  Uiso   1.00
H3738  H     0.80492   0.52884   0.62406   0.00000  Uiso   1.00
H3739  H     0.64082   0.51028   0.67773   0.00000  Uiso   1.00
H3740  H     0.70878   0.70980   0.65060   0.00000  Uiso   1.00
O3741  O     0.66955   0.52695   0.52876   0.00000  Uiso   1.00
C3742  C     0.58548   0.71384   0.54780   0.00000  Uiso   1.00
C3743  C     0.67418   0.61275   0.69272   0.00000  Uiso   1.00
C3744  C     0.68123   0.53946   0.57731   0.00000  Uiso   1.00
C3745  C     0.77585   0.70080   0.50477   0.00000  Uiso   1.00
C3746  C     0.68897   0.56070   0.59672   0.00000  Uiso   1.00
O3747  O     0.79072   0.67852   0.49309   0.00000  Uiso   1.00
C3748  C     0.62152   0.50033   0.68382   0.00000  Uiso   1.00
C3749  C     0.81469   0.54381   0.66405   0.00000  Uiso   1.00
C3750  C     0.83909   0.52664   0.49218   0.00000  Uiso   1.00
H3751  H     0.84847   0.53677   0.51047   0.00000  Uiso   1.00
C3752  C     0.77948   0.65969   0.71963   0.00000  Uiso   1.00
C3753  C     0.84229   0.70523   0.60386   0.00000  Uiso   1.00
H3754  H     0.57056   0.64231   0.54700   0.00000  Uiso   1.00
C3755  C     0.66018   0.59127   0.68100   0.00000  Uiso   1.00
N3756  N     0.75066   0.71893   0.69008   0.00000  Uiso   1.00
C3757  C     0.60769   0.67423   0.51800   0.00000  Uiso   1.00
O3758  O     0.63507   0.62000   0.61566   0.00000  Uiso   1.00
C3759  C     0.63037   0.64638   0.60612   0.00000  Uiso   1.00
C3760  C     0.59071   0.66718   0.49625   0.00000  Uiso   1.00
O3761  O     0.65631   0.56690   0.69613   0.00000  Uiso   1.00
H3762  H     0.86239   0.70030   0.54317   0.00000  Uiso   1.00
C3763  C     0.78027   0.61260   0.66160   0.00000  Uiso   1.00
C3764  C     0.72713   0.64526   0.48373   0.00000  Uiso   1.00
C3765  C     0.71701   0.72240   0.63444   0.00000  Uiso   1.00
O3766  O     0.77369   0.64961   0.69267   0.00000  Uiso   1.00
H3767  H     0.64733   0.68416   0.52873   0.00000  Uiso   1.00
N3768  N     0.67403   0.58652   0.48960   0.00000  Uiso   1.00
C3769  C     0.64855   0.59349   0.65547   0.00000  Uiso   1.00
C3770  C     0.64816   0.61860   0.64151   0.00000  Uiso   1.00
H3771  H     0.76741   0.62392   0.64496   0.00000  Uiso   1.00
H3772  H     0.76924   0.67832   0.54266   0.00000  Uiso   1.00
C3773  C     0.67952   0.54617   0.54852   0.00000  Uiso   1.00
C3774  C     0.74784   0.71670   0.54272   0.00000  Uiso   1.00
N3775  N     0.74284   0.65258   0.49934   0.00000  Uiso   1.00
C3776  C     0.56070   0.66403   0.50886   0.00000  Uiso   1.00
C3777  C     0.68376   0.57433   0.54082   0.00000  Uiso   1.00
C3778  C     0.66498   0.50218   0.53934   0.00000  Uiso   1.00
C3779  C     0.65896   0.64132   0.65513   0.00000  Uiso   1.00
O3780  O     0.65578   0.66789   0.64359   0.00000  Uiso   1.00
C3781  C     0.69075   0.59499   0.55936   0.00000  Uiso   1.00
H3782  H     0.77665   0.54537   0.54864   0.00000  Uiso   1.00
H3783  H     0.83187   0.55320   0.62435   0.00000  Uiso   1.00
C3784  C     0.80953   0.58290   0.69945   0.00000  Uiso   1.00
H3785  H     0.77814   0.66367   0.48813   0.00000  Uiso   1.00
C3786  C     0.78911   0.54677   0.52992   0.00000  Uiso   1.00
H3787  H     0.77555   0.68070   0.62817   0.00000  Uiso   1.00
C3788  C     0.72586   0.68030   0.60453   0.00000  Uiso   1.00
C3789  C     0.63586   0.67584   0.51130   0.00000  Uiso   1.00
C3790  C     0.74877   0.71965   0.59340   0.00000  Uiso   1.00
H3791  H     0.81393   0.48140   0.53227   0.00000  Uiso   1.00
H3792  H     0.64735   0.48890   0.49978   0.00000  Uiso   1.00
C3793  C     0.76776   0.50581   0.47581   0.00000  Uiso   1.00
N3794  N     0.69573   0.54989   0.64802   0.00000  Uiso   1.00
C3795  C     0.63430   0.69660   0.60827   0.00000  Uiso   1.00
C3796  C     0.80624   0.50049   0.54133   0.00000  Uiso   1.00
H3797  H     0.83563   0.68970   0.58815   0.00000  Uiso   1.00
H3798  H     0.81028   0.55506   0.53522   0.00000  Uiso   1.00
C3799  C     0.80517   0.57068   0.67433   0.00000  Uiso   1.00
H3800  H     0.62316   0.49955   0.70618   0.00000  Uiso   1.00
C3801  C     0.76534   0.69809   0.53084   0.00000  Uiso   1.00
C3802  C     0.61646   0.69862   0.58561   0.00000  Uiso   1.00
H3803  H     0.82774   0.72285   0.60135   0.00000  Uiso   1.00
C3804  C     0.86497   0.49659   0.69865   0.00000  Uiso   1.00
C3805  C     0.65393   0.48279   0.52049   0.00000  Uiso   1.00
C3806  C     0.64638   0.67002   0.48540   0.00000  Uiso   1.00
C3807  C     0.70920   0.63284   0.59587   0.00000  Uiso   1.00
H3808  H     0.75811   0.54954   0.64446   0.00000  Uiso   1.00
C3809  C     0.76266   0.69620   0.63727   0.00000  Uiso   1.00
H3810  H     0.74756   0.57569   0.62317   0.00000  Uiso   1.00
H3811  H     0.61660   0.48261   0.62694   0.00000  Uiso   1.00
C3812  C     0.78280   0.62340   0.68823   0.00000  Uiso   1.00
C3813  C     0.72252   0.68600   0.57505   0.00000  Uiso   1.00
C3814  C     0.66828   0.49324   0.56727   0.00000  Uiso   1.00
H3815  H     0.77678   0.71278   0.64542   0.00000  Uiso   1.00
N3816  N     0.62237   0.55407   0.63114   0.00000  Uiso   1.00
C3817  C     0.70357   0.63975   0.56890   0.00000  Uiso   1.00
H3818  H     0.78296   0.51120   0.65615   0.00000  Uiso   1.00
C3819  C     0.69286   0.55488   0.62415   0.00000  Uiso   1.00
O3820  O     0.64200   0.71916   0.71668   0.00000  Uiso   1.00
H3821  H     0.75319   0.68571   0.65493   0.00000  Uiso   1.00
H3822  H     0.58436   0.48216   0.64109   0.00000  Uiso   1.00
C3823  C     0.80172   0.60934   0.70666   0.00000  Uiso   1.00
C3824  C     0.67807   0.58146   0.51252   0.00000  Uiso   1.00
C3825  C     0.71118   0.66628   0.55829   0.00000  Uiso   1.00
C3826  C     0.76641   0.50402   0.50707   0.00000  Uiso   1.00
C3827  C     0.64001   0.67031   0.61980   0.00000  Uiso   1.00
H3828  H     0.64444   0.71470   0.61732   0.00000  Uiso   1.00
C3829  C     0.61369   0.64921   0.58174   0.00000  Uiso   1.00
C3830  C     0.68728   0.66014   0.69172   0.00000  Uiso   1.00
C3831  C     0.60691   0.67552   0.57150   0.00000  Uiso   1.00
C3832  C     0.69503   0.58721   0.58677   0.00000  Uiso   1.00
C3833  C     0.59211   0.68197   0.54424   0.00000  Uiso   1.00
H3834  H     0.78801   0.60897   0.60059   0.00000  Uiso   1.00
H3835  H     0.82095   0.60051   0.61029   0.00000  Uiso   1.00
H3836  H     0.86709   0.56562   0.65722   0.00000  Uiso   1.00
C3837  C     0.80021   0.59136   0.60586   0.00000  Uiso   1.00
C3838  C     0.76287   0.55970   0.62524   0.00000  Uiso   1.00
H3839  H     0.72225   0.64872   0.63570   0.00000  Uiso   1.00
H3840  H     0.56224   0.61893   0.50910   0.00000  Uiso   1.00
H3841  H     0.77697   0.53021   0.68405   0.00000  Uiso   1.00
H3842  H     0.70953   0.67299   0.53580   0.00000  Uiso   1.00
O3843  O     0.67484   0.66698   0.48383   0.00000  Uiso   1.00
C3844  C     0.71909   0.65380   0.61379   0.00000  Uiso   1.00
C3845  C     0.67504   0.63841   0.67869   0.00000  Uiso   1.00
H3846  H     0.76085   0.54544   0.60733   0.00000  Uiso   1.00
H3847  H     0.80314   0.58060   0.58689   0.00000  Uiso   1.00
C3848  C     0.75975   0.70401   0.70613   0.00000  Uiso   1.00
C3849  C     0.79416   0.52103   0.67311   0.00000  Uiso   1.00
C3850  C     0.81142   0.51961   0.49267   0.00000  Uiso   1.00
H3851  H     0.84071   0.69619   0.62385   0.00000  Uiso   1.00
C3852  C     0.79058   0.58647   0.65546   0.00000  Uiso   1.00
N3853  N     0.69823   0.67915   0.70224   0.00000  Uiso   1.00
H3854  H     0.70474   0.49335   0.48420   0.00000  Uiso   1.00
H3855  H     0.81825   0.57081   0.71633   0.00000  Uiso   1.00
H3856  H     0.79158   0.49277   0.55715   0.00000  Uiso   1.00
O3857  O     0.68738   0.61087   0.71902   0.00000  Uiso   1.00
C3858  C     0.87222   0.71413   0.59840   0.00000  Uiso   1.00
H3859  H     0.77168   0.71529   0.58937   0.00000  Uiso   1.00
H3860  H     0.76635   0.48233   0.51264   0.00000  Uiso   1.00
H3861  H     0.88254   0.67356   0.58168   0.00000  Uiso   1.00
H3862  H     0.57764   0.47712   0.69780   0.00000  Uiso   1.00
C3863  C     0.80117   0.50665   0.72046   0.00000  Uiso   1.00
H3864  H     0.77574   0.56232   0.47342   0.00000  Uiso   1.00
C3865  C     0.86549   0.72285   0.54461   0.00000  Uiso   1.00
C3866  C     0.61504   0.68838   0.82112   0.00000  Uiso   1.00
C3867  C     0.69673   0.57406   0.85947   0.00000  Uiso   1.00
O3868  O     0.75502   0.49681   0.79278   0.00000  Uiso   1.00
C3869  C     0.86657   0.69986   0.88148   0.00000  Uiso   1.00
C3870  C     0.62751   0.49801   0.89823   0.00000  Uiso   1.00
C3871  C     0.88147   0.65734   0.94096   0.00000  Uiso   1.00
C3872  C     0.70568   0.70364   0.86170   0.00000  Uiso   1.00
C3873  C     0.74349   0.51614   0.80879   0.00000  Uiso   1.00
C3874  C     0.83559   0.52548   0.80754   0.00000  Uiso   1.00
C3875  C     0.58235   0.50695   0.87827   0.00000  Uiso   1.00
C3876  C     0.64970   0.54849   0.74214   0.00000  Uiso   1.00
C3877  C     0.87943   0.70665   0.85686   0.00000  Uiso   1.00
C3878  C     0.78375   0.57902   0.80141   0.00000  Uiso   1.00
C3879  C     0.67906   0.56264   0.81103   0.00000  Uiso   1.00
O3880  O     0.86616   0.67423   0.92466   0.00000  Uiso   1.00
C3881  C     0.66152   0.56917   0.72515   0.00000  Uiso   1.00
H3882  H     0.69920   0.60129   0.82324   0.00000  Uiso   1.00
C3883  C     0.58640   0.48401   0.95188   0.00000  Uiso   1.00
H3884  H     0.78075   0.53697   0.92595   0.00000  Uiso   1.00
H3885  H     0.65064   0.49151   0.76978   0.00000  Uiso   1.00
H3886  H     0.71220   0.52684   0.78061   0.00000  Uiso   1.00
H3887  H     0.56368   0.51009   0.92738   0.00000  Uiso   1.00
H3888  H     0.70223   0.60231   0.77188   0.00000  Uiso   1.00
C3889  C     0.82207   0.60508   0.87506   0.00000  Uiso   1.00
C3890  C     0.67500   0.69557   0.79145   0.00000  Uiso   1.00
O3891  O     0.79241   0.69265   0.79804   0.00000  Uiso   1.00
C3892  C     0.82084   0.64668   0.78350   0.00000  Uiso   1.00
H3893  H     0.72648   0.58712   0.89144   0.00000  Uiso   1.00
H3894  H     0.69816   0.60992   0.88237   0.00000  Uiso   1.00
H3895  H     0.65564   0.65474   0.84597   0.00000  Uiso   1.00
H3896  H     0.69025   0.66890   0.87950   0.00000  Uiso   1.00
H3897  H     0.63752   0.55321   0.82717   0.00000  Uiso   1.00
H3898  H     0.62776   0.50006   0.95836   0.00000  Uiso   1.00
C3899  C     0.63566   0.66888   0.80650   0.00000  Uiso   1.00
C3900  C     0.68095   0.70758   0.84259   0.00000  Uiso   1.00
H3901  H     0.79215   0.52663   0.95773   0.00000  Uiso   1.00
O3902  O     0.77338   0.50489   0.84938   0.00000  Uiso   1.00
C3903  C     0.77069   0.56973   0.77684   0.00000  Uiso   1.00
H3904  H     0.66534   0.59645   0.83947   0.00000  Uiso   1.00
N3905  N     0.75958   0.56146   0.75693   0.00000  Uiso   1.00
C3906  C     0.79593   0.64521   0.73872   0.00000  Uiso   1.00
H3907  H     0.81450   0.49438   0.73300   0.00000  Uiso   1.00
C3908  C     0.80080   0.65657   0.76528   0.00000  Uiso   1.00
C3909  C     0.86800   0.48876   0.80450   0.00000  Uiso   1.00
C3910  C     0.61167   0.48937   0.96911   0.00000  Uiso   1.00
N3911  N     0.83762   0.63784   0.79834   0.00000  Uiso   1.00
N3912  N     0.81521   0.71202   0.88738   0.00000  Uiso   1.00
H3913  H     0.65478   0.55604   0.86741   0.00000  Uiso   1.00
C3914  C     0.64025   0.69099   0.75771   0.00000  Uiso   1.00
H3915  H     0.60883   0.63221   0.81161   0.00000  Uiso   1.00
H3916  H     0.60280   0.52322   0.81476   0.00000  Uiso   1.00
C3917  C     0.74505   0.48450   0.90718   0.00000  Uiso   1.00
C3918  C     0.67381   0.56919   0.78140   0.00000  Uiso   1.00
C3919  C     0.68514   0.58957   0.76444   0.00000  Uiso   1.00
H3920  H     0.71226   0.68684   0.90383   0.00000  Uiso   1.00
H3921  H     0.74676   0.54419   0.87270   0.00000  Uiso   1.00
C3922  C     0.70576   0.54886   0.81666   0.00000  Uiso   1.00
H3923  H     0.62022   0.68255   0.74940   0.00000  Uiso   1.00
H3924  H     0.59504   0.52685   0.93388   0.00000  Uiso   1.00
C3925  C     0.81727   0.57107   0.83746   0.00000  Uiso   1.00
C3926  C     0.68430   0.58590   0.83195   0.00000  Uiso   1.00
C3927  C     0.65621   0.55000   0.77043   0.00000  Uiso   1.00
H3928  H     0.65400   0.48608   0.80579   0.00000  Uiso   1.00
C3929  C     0.75240   0.52088   0.83769   0.00000  Uiso   1.00
O3930  O     0.80808   0.61968   0.73301   0.00000  Uiso   1.00
C3931  C     0.72289   0.65483   0.80420   0.00000  Uiso   1.00
C3932  C     0.61202   0.52824   0.79296   0.00000  Uiso   1.00
C3933  C     0.71665   0.55516   0.84211   0.00000  Uiso   1.00
O3934  O     0.81068   0.53700   0.79817   0.00000  Uiso   1.00
C3935  C     0.84665   0.53204   0.83437   0.00000  Uiso   1.00
H3936  H     0.63597   0.53316   0.73515   0.00000  Uiso   1.00
H3937  H     0.67319   0.56712   0.89837   0.00000  Uiso   1.00
C3938  C     0.78838   0.68241   0.77124   0.00000  Uiso   1.00
C3939  C     0.65534   0.54288   0.81877   0.00000  Uiso   1.00
C3940  C     0.72370   0.53788   0.93646   0.00000  Uiso   1.00
C3941  C     0.77891   0.48047   0.83378   0.00000  Uiso   1.00
C3942  C     0.77364   0.53508   0.94725   0.00000  Uiso   1.00
H3943  H     0.59770   0.68147   0.83339   0.00000  Uiso   1.00
C3944  C     0.59646   0.49330   0.90226   0.00000  Uiso   1.00
C3945  C     0.65022   0.68468   0.78385   0.00000  Uiso   1.00
C3946  C     0.75011   0.49186   0.93401   0.00000  Uiso   1.00
O3947  O     0.75657   0.61950   0.79810   0.00000  Uiso   1.00
H3948  H     0.71422   0.64627   0.78547   0.00000  Uiso   1.00
C3949  C     0.71977   0.52973   0.80065   0.00000  Uiso   1.00
C3950  C     0.76024   0.65080   0.83795   0.00000  Uiso   1.00
H3951  H     0.84468   0.70477   0.73023   0.00000  Uiso   1.00
H3952  H     0.76176   0.68105   0.87056   0.00000  Uiso   1.00
H3953  H     0.63300   0.63059   0.78116   0.00000  Uiso   1.00
C3954  C     0.69766   0.68881   0.88752   0.00000  Uiso   1.00
H3955  H     0.66344   0.52729   0.83376   0.00000  Uiso   1.00
H3956  H     0.58598   0.49724   0.85754   0.00000  Uiso   1.00
C3957  C     0.74633   0.51902   0.94893   0.00000  Uiso   1.00
H3958  H     0.74051   0.50100   0.89148   0.00000  Uiso   1.00
C3959  C     0.58654   0.50609   0.92955   0.00000  Uiso   1.00
C3960  C     0.72345   0.68202   0.84543   0.00000  Uiso   1.00
C3961  C     0.74959   0.67306   0.85346   0.00000  Uiso   1.00
O3962  O     0.78387   0.63783   0.84829   0.00000  Uiso   1.00
C3963  C     0.77880   0.60497   0.81079   0.00000  Uiso   1.00
O3964  O     0.86379   0.71940   0.83651   0.00000  Uiso   1.00
C3965  C     0.68100   0.68339   0.82047   0.00000  Uiso   1.00
H3966  H     0.59683   0.47487   0.74486   0.00000  Uiso   1.00
C3967  C     0.64459   0.52955   0.79307   0.00000  Uiso   1.00
C3968  C     0.79093   0.61291   0.83593   0.00000  Uiso   1.00
O3969  O     0.83692   0.55388   0.85054   0.00000  Uiso   1.00
C3970  C     0.65915   0.66153   0.82443   0.00000  Uiso   1.00
H3971  H     0.60558   0.55057   0.79073   0.00000  Uiso   1.00
H3972  H     0.62523   0.70103   0.83706   0.00000  Uiso   1.00
C3973  C     0.81010   0.59577   0.84933   0.00000  Uiso   1.00
H3974  H     0.70446   0.52655   0.93346   0.00000  Uiso   1.00
C3975  C     0.70893   0.67255   0.82169   0.00000  Uiso   1.00
C3976  C     0.80344   0.56159   0.81405   0.00000  Uiso   1.00
C3977  C     0.74770   0.64232   0.81370   0.00000  Uiso   1.00
H3978  H     0.80326   0.52859   0.72575   0.00000  Uiso   1.00
C3979  C     0.83876   0.70595   0.88400   0.00000  Uiso   1.00
H3980  H     0.66975   0.64306   0.81736   0.00000  Uiso   1.00
C3981  C     0.67910   0.58908   0.73556   0.00000  Uiso   1.00
H3982  H     0.72639   0.60714   0.86081   0.00000  Uiso   1.00
H3983  H     0.60025   0.51767   0.77772   0.00000  Uiso   1.00
C3984  C     0.71256   0.59581   0.87451   0.00000  Uiso   1.00
H3985  H     0.55934   0.50786   0.87862   0.00000  Uiso   1.00
C3986  C     0.88120   0.49830   0.82747   0.00000  Uiso   1.00
H3987  H     0.68577   0.53694   0.88343   0.00000  Uiso   1.00
H3988  H     0.72986   0.54657   0.91663   0.00000  Uiso   1.00
H3989  H     0.63279   0.51963   0.89585   0.00000  Uiso   1.00
C3990  C     0.61926   0.64327   0.79554   0.00000  Uiso   1.00
C3991  C     0.77368   0.69638   0.75089   0.00000  Uiso   1.00
H3992  H     0.84509   0.64069   0.96269   0.00000  Uiso   1.00
N3993  N     0.83114   0.61056   0.89624   0.00000  Uiso   1.00
H3994  H     0.88035   0.52732   0.86265   0.00000  Uiso   1.00
H3995  H     0.63655   0.48634   0.88014   0.00000  Uiso   1.00
H3996  H     0.60177   0.64914   0.78106   0.00000  Uiso   1.00
C3997  C     0.88091   0.68605   0.90141   0.00000  Uiso   1.00
C3998  C     0.84400   0.50098   0.79485   0.00000  Uiso   1.00
C3999  C     0.68076   0.72033   0.74914   0.00000  Uiso   1.00
H4000  H     0.59014   0.52882   0.87842   0.00000  Uiso   1.00
C4001  C     0.73947   0.54180   0.85192   0.00000  Uiso   1.00
H4002  H     0.78059   0.50052   0.72367   0.00000  Uiso   1.00
C4003  C     0.67615   0.55689   0.87688   0.00000  Uiso   1.00
H4004  H     0.68028   0.69846   0.89829   0.00000  Uiso   1.00
C4005  C     0.65733   0.50107   0.78913   0.00000  Uiso   1.00
C4006  C     0.86756   0.64013   0.96003   0.00000  Uiso   1.00
C4007  C     0.68964   0.71385   0.77579   0.00000  Uiso   1.00
H4008  H     0.67988   0.50127   0.79102   0.00000  Uiso   1.00
H4009  H     0.64071   0.49513   0.91625   0.00000  Uiso   1.00
H4010  H     0.60305   0.70408   0.80875   0.00000  Uiso   1.00
C4011  C     0.77073   0.47727   0.80645   0.00000  Uiso   1.00
H4012  H     0.71784   0.55426   0.95057   0.00000  Uiso   1.00
C4013  C     0.86925   0.51946   0.84341   0.00000  Uiso   1.00
C4014  C     0.77036   0.68510   0.72605   0.00000  Uiso   1.00
H4015  H     0.76941   0.55601   0.95806   0.00000  Uiso   1.00
H4016  H     0.83518   0.49189   0.77555   0.00000  Uiso   1.00
C4017  C     0.65348   0.71062   0.74092   0.00000  Uiso   1.00
H4018  H     0.66138   0.70725   0.85380   0.00000  Uiso   1.00
C4019  C     0.78555   0.71989   0.80088   0.00000  Uiso   1.00
H4020  H     0.87547   0.47357   0.75037   0.00000  Uiso   1.00
O4021  O     0.76434   0.72288   0.75519   0.00000  Uiso   1.00
H4022  H     0.79933   0.71949   0.84241   0.00000  Uiso   1.00
H4023  H     0.78044   0.67756   0.96784   0.00000  Uiso   1.00
H4024  H     0.71019   0.72064   0.78478   0.00000  Uiso   1.00
H4025  H     0.82661   0.57661   1.16091   0.00000  Uiso   1.00
H4026  H     0.88637   0.65308   1.02823   0.00000  Uiso   1.00
C4027  C     0.65326   0.63880   1.15067   0.00000  Uiso   1.00
C4028  C     0.73382   0.63376   1.11371   0.00000  Uiso   1.00
C4029  C     0.78603   0.56325   1.11192   0.00000  Uiso   1.00
C4030  C     0.76291   0.65579   1.07804   0.00000  Uiso   1.00
O4031  O     0.64474   0.69865   1.10502   0.00000  Uiso   1.00
H4032  H     0.59194   0.62345   1.03794   0.00000  Uiso   1.00
H4033  H     0.85305   0.60781   1.20135   0.00000  Uiso   1.00
C4034  C     0.72842   0.60337   1.04864   0.00000  Uiso   1.00
H4035  H     0.86727   0.54549   1.03245   0.00000  Uiso   1.00
H4036  H     0.63793   0.52377   1.13045   0.00000  Uiso   1.00
H4037  H     0.77074   0.58229   1.15822   0.00000  Uiso   1.00
H4038  H     0.58947   0.67621   1.20508   0.00000  Uiso   1.00
H4039  H     0.80943   0.62044   1.17572   0.00000  Uiso   1.00
H4040  H     0.78700   0.55257   1.09148   0.00000  Uiso   1.00
C4041  C     0.81810   0.69291   1.00237   0.00000  Uiso   1.00
H4042  H     0.80393   0.65780   1.03985   0.00000  Uiso   1.00
H4043  H     0.83422   0.69230   1.01823   0.00000  Uiso   1.00
C4044  C     0.74070   0.48036   0.97999   0.00000  Uiso   1.00
O4045  O     0.57957   0.48408   1.20681   0.00000  Uiso   1.00
C4046  C     0.55660   0.50425   1.01911   0.00000  Uiso   1.00
C4047  C     0.65558   0.55921   1.17794   0.00000  Uiso   1.00
C4048  C     0.82054   0.70305   1.17784   0.00000  Uiso   1.00
C4049  C     0.88027   0.63271   1.12077   0.00000  Uiso   1.00
O4050  O     0.66239   0.63392   1.17750   0.00000  Uiso   1.00
H4051  H     0.77914   0.60477   1.18886   0.00000  Uiso   1.00
C4052  C     0.75757   0.66253   1.17964   0.00000  Uiso   1.00
C4053  C     0.72329   0.63281   1.05999   0.00000  Uiso   1.00
C4054  C     0.73987   0.63916   1.08543   0.00000  Uiso   1.00
C4055  C     0.79504   0.54739   1.17737   0.00000  Uiso   1.00
C4056  C     0.65300   0.58616   1.16789   0.00000  Uiso   1.00
C4057  C     0.69367   0.63636   1.06705   0.00000  Uiso   1.00
C4058  C     0.58489   0.50094   1.08906   0.00000  Uiso   1.00
H4059  H     0.62774   0.54109   1.09936   0.00000  Uiso   1.00
C4060  C     0.60380   0.48197   1.13502   0.00000  Uiso   1.00
C4061  C     0.81881   0.49944   1.17279   0.00000  Uiso   1.00
C4062  C     0.63329   0.48353   1.09613   0.00000  Uiso   1.00
C4063  C     0.78831   0.69692   1.21565   0.00000  Uiso   1.00
C4064  C     0.74712   0.66869   1.20509   0.00000  Uiso   1.00
H4065  H     0.71344   0.62350   1.11972   0.00000  Uiso   1.00
C4066  C     0.76373   0.69946   1.05195   0.00000  Uiso   1.00
H4067  H     0.79812   0.60182   1.02026   0.00000  Uiso   1.00
C4068  C     0.62342   0.49256   1.01863   0.00000  Uiso   1.00
C4069  C     0.57537   0.49901   0.99760   0.00000  Uiso   1.00
H4070  H     0.82669   0.49777   1.19358   0.00000  Uiso   1.00
C4071  C     0.83480   0.57433   1.01960   0.00000  Uiso   1.00
C4072  C     0.78194   0.66277   1.09771   0.00000  Uiso   1.00
H4073  H     0.73805   0.51646   1.13556   0.00000  Uiso   1.00
H4074  H     0.83786   0.55345   1.18604   0.00000  Uiso   1.00
H4075  H     0.79619   0.57258   1.04111   0.00000  Uiso   1.00
C4076  C     0.79144   0.52128   1.13662   0.00000  Uiso   1.00
C4077  C     0.78449   0.66064   1.03026   0.00000  Uiso   1.00
H4078  H     0.82018   0.71266   0.99126   0.00000  Uiso   1.00
H4079  H     0.68615   0.61935   1.07971   0.00000  Uiso   1.00
H4080  H     0.75134   0.68112   0.98430   0.00000  Uiso   1.00
C4081  C     0.62546   0.65368   1.10148   0.00000  Uiso   1.00
H4082  H     0.57547   0.59278   1.04335   0.00000  Uiso   1.00
H4083  H     0.72174   0.60269   1.02671   0.00000  Uiso   1.00
H4084  H     0.83184   0.59444   0.97930   0.00000  Uiso   1.00
C4085  C     0.84670   0.59520   1.06804   0.00000  Uiso   1.00
O4086  O     0.74049   0.64703   1.16208   0.00000  Uiso   1.00
N4087  N     0.60699   0.58714   1.07816   0.00000  Uiso   1.00
H4088  H     0.65439   0.54361   1.16210   0.00000  Uiso   1.00
H4089  H     0.74249   0.52699   1.10193   0.00000  Uiso   1.00
N4090  N     0.66415   0.70587   1.17142   0.00000  Uiso   1.00
H4091  H     0.78224   0.64234   1.01809   0.00000  Uiso   1.00
H4092  H     0.82359   0.67553   0.98811   0.00000  Uiso   1.00
H4093  H     0.72292   0.52146   0.98706   0.00000  Uiso   1.00
C4094  C     0.79771   0.69126   1.18886   0.00000  Uiso   1.00
O4095  O     0.60841   0.65950   1.07956   0.00000  Uiso   1.00
C4096  C     0.75097   0.64581   1.13402   0.00000  Uiso   1.00
C4097  C     0.57670   0.60925   1.02974   0.00000  Uiso   1.00
H4098  H     0.56868   0.50935   1.10170   0.00000  Uiso   1.00
C4099  C     0.84778   0.59516   1.03997   0.00000  Uiso   1.00
H4100  H     0.69028   0.65397   1.07999   0.00000  Uiso   1.00
C4101  C     0.62801   0.62542   1.10827   0.00000  Uiso   1.00
C4102  C     0.78315   0.67447   1.17159   0.00000  Uiso   1.00
C4103  C     0.80318   0.58029   1.02132   0.00000  Uiso   1.00
C4104  C     0.85947   0.61668   1.08178   0.00000  Uiso   1.00
C4105  C     0.74327   0.53439   1.12371   0.00000  Uiso   1.00
H4106  H     0.75851   0.51972   0.98901   0.00000  Uiso   1.00
C4107  C     0.77265   0.69003   0.98461   0.00000  Uiso   1.00
H4108  H     0.77106   0.48124   1.01611   0.00000  Uiso   1.00
O4109  O     0.79412   0.67119   1.14453   0.00000  Uiso   1.00
C4110  C     0.84725   0.58232   0.99117   0.00000  Uiso   1.00
H4111  H     0.85412   0.56331   0.98127   0.00000  Uiso   1.00
H4112  H     0.68429   0.50798   1.18334   0.00000  Uiso   1.00
H4113  H     0.78467   0.50064   1.10043   0.00000  Uiso   1.00
H4114  H     0.72333   0.50378   1.03255   0.00000  Uiso   1.00
H4115  H     0.68265   0.63688   1.04760   0.00000  Uiso   1.00
H4116  H     0.56367   0.51820   1.03528   0.00000  Uiso   1.00
H4117  H     0.74975   0.59605   1.04843   0.00000  Uiso   1.00
H4118  H     0.71621   0.58857   1.05989   0.00000  Uiso   1.00
C4119  C     0.87500   0.63808   1.03962   0.00000  Uiso   1.00
C4120  C     0.68827   0.51151   1.20582   0.00000  Uiso   1.00
C4121  C     0.58990   0.49107   1.15883   0.00000  Uiso   1.00
C4122  C     0.82031   0.56525   1.17955   0.00000  Uiso   1.00
C4123  C     0.73204   0.65676   1.04021   0.00000  Uiso   1.00
H4124  H     0.77568   0.58316   1.10743   0.00000  Uiso   1.00
C4125  C     0.64374   0.61840   1.13229   0.00000  Uiso   1.00
H4126  H     0.58052   0.51154   1.16111   0.00000  Uiso   1.00
C4127  C     0.61620   0.60479   1.09119   0.00000  Uiso   1.00
H4128  H     0.56224   0.63478   0.98723   0.00000  Uiso   1.00
C4129  C     0.58621   0.69645   1.05507   0.00000  Uiso   1.00
H4130  H     0.73109   0.65204   1.01739   0.00000  Uiso   1.00
H4131  H     0.80016   0.67553   1.09212   0.00000  Uiso   1.00
H4132  H     0.58766   0.51575   1.07163   0.00000  Uiso   1.00
C4133  C     0.75342   0.71635   1.07300   0.00000  Uiso   1.00
C4134  C     0.80284   0.52191   1.16291   0.00000  Uiso   1.00
O4135  O     0.64794   0.59024   1.13937   0.00000  Uiso   1.00
H4136  H     0.72619   0.55019   1.12490   0.00000  Uiso   1.00
C4137  C     0.79557   0.49878   1.12003   0.00000  Uiso   1.00
C4138  C     0.78916   0.68700   1.01265   0.00000  Uiso   1.00
C4139  C     0.65948   0.68659   1.15789   0.00000  Uiso   1.00
H4140  H     0.58286   0.60006   1.00893   0.00000  Uiso   1.00
H4141  H     0.80759   0.56755   1.11801   0.00000  Uiso   1.00
C4142  C     0.60667   0.68692   1.07172   0.00000  Uiso   1.00
H4143  H     0.71698   0.67307   1.04251   0.00000  Uiso   1.00
H4144  H     0.70057   0.48244   1.05195   0.00000  Uiso   1.00
C4145  C     0.64258   0.67217   1.11554   0.00000  Uiso   1.00
C4146  C     0.72263   0.48461   1.04378   0.00000  Uiso   1.00
C4147  C     0.65324   0.66520   1.14114   0.00000  Uiso   1.00
C4148  C     0.65736   0.60708   1.18753   0.00000  Uiso   1.00
H4149  H     0.64341   0.48990   1.20595   0.00000  Uiso   1.00
C4150  C     0.77150   0.54590   1.13255   0.00000  Uiso   1.00
H4151  H     0.62520   0.50596   1.03692   0.00000  Uiso   1.00
C4152  C     0.76026   0.66763   1.04973   0.00000  Uiso   1.00
C4153  C     0.78758   0.54605   1.20749   0.00000  Uiso   1.00
C4154  C     0.77091   0.55910   1.16146   0.00000  Uiso   1.00
H4155  H     0.75120   0.55539   1.17108   0.00000  Uiso   1.00
H4156  H     0.60248   0.54594   1.01436   0.00000  Uiso   1.00
H4157  H     0.84035   0.52976   1.01322   0.00000  Uiso   1.00
C4158  C     0.77619   0.65889   1.12559   0.00000  Uiso   1.00
C4159  C     0.62050   0.52833   1.11674   0.00000  Uiso   1.00
C4160  C     0.86504   0.61405   1.02669   0.00000  Uiso   1.00
H4161  H     0.60438   0.53833   1.12905   0.00000  Uiso   1.00
H4162  H     0.55739   0.58548   1.08578   0.00000  Uiso   1.00
C4163  C     0.87292   0.60196   0.99791   0.00000  Uiso   1.00
H4164  H     0.79199   0.57030   1.00388   0.00000  Uiso   1.00
H4165  H     0.83516   0.57938   1.07909   0.00000  Uiso   1.00
C4166  C     0.62700   0.70584   1.08346   0.00000  Uiso   1.00
C4167  C     0.60562   0.50560   0.99575   0.00000  Uiso   1.00
H4168  H     0.65351   0.49051   1.10174   0.00000  Uiso   1.00
C4169  C     0.65851   0.55288   1.20495   0.00000  Uiso   1.00
H4170  H     0.64507   0.48916   1.01163   0.00000  Uiso   1.00
C4171  C     0.74132   0.51251   0.97768   0.00000  Uiso   1.00
C4172  C     0.55995   0.71701   1.22140   0.00000  Uiso   1.00
H4173  H     0.68955   0.49109   1.21780   0.00000  Uiso   1.00
H4174  H     0.75856   0.51270   1.20968   0.00000  Uiso   1.00
H4175  H     0.73897   0.70907   1.09008   0.00000  Uiso   1.00
C4176  C     0.84471   0.54483   1.02920   0.00000  Uiso   1.00
C4177  C     0.61012   0.49998   1.10860   0.00000  Uiso   1.00
H4178  H     0.83335   0.53674   1.04816   0.00000  Uiso   1.00
H4179  H     0.56900   0.68212   1.04891   0.00000  Uiso   1.00
O4180  O     0.87824   0.66368   1.08184   0.00000  Uiso   1.00
N4181  N     0.83970   0.71434   1.16780   0.00000  Uiso   1.00
C4182  C     0.88357   0.62287   0.97709   0.00000  Uiso   1.00
C4183  C     0.80955   0.47571   1.12910   0.00000  Uiso   1.00
C4184  C     0.79926   0.61101   1.19347   0.00000  Uiso   1.00
C4185  C     0.64142   0.50603   1.22289   0.00000  Uiso   1.00
H4186  H     0.58191   0.72221   1.21871   0.00000  Uiso   1.00
C4187  C     0.72232   0.65678   1.21446   0.00000  Uiso   1.00
C4188  C     0.78219   0.70893   1.03333   0.00000  Uiso   1.00
H4189  H     0.56371   0.66201   1.01027   0.00000  Uiso   1.00
C4190  C     0.65652   0.60200   1.21514   0.00000  Uiso   1.00
H4191  H     0.70894   0.52141   1.20737   0.00000  Uiso   1.00
H4192  H     0.56678   0.69619   1.16962   0.00000  Uiso   1.00
H4193  H     0.63511   0.48573   1.07318   0.00000  Uiso   1.00
C4194  C     0.87037   0.64041   1.06788   0.00000  Uiso   1.00
C4195  C     0.76878   0.52895   1.22041   0.00000  Uiso   1.00
C4196  C     0.81525   0.58502   1.20257   0.00000  Uiso   1.00
C4197  C     0.66461   0.52687   1.22069   0.00000  Uiso   1.00
O4198  O     0.86030   0.61508   1.11062   0.00000  Uiso   1.00
C4199  C     0.56483   0.48564   0.97392   0.00000  Uiso   1.00
H4200  H     0.56341   0.70983   1.00556   0.00000  Uiso   1.00
C4201  C     0.61004   0.53677   0.99528   0.00000  Uiso   1.00
H4202  H     0.63360   0.54447   0.99492   0.00000  Uiso   1.00
H4203  H     0.77295   0.71143   0.97640   0.00000  Uiso   1.00
H4204  H     0.73842   0.48691   1.06028   0.00000  Uiso   1.00
H4205  H     0.86130   0.70332   1.21852   0.00000  Uiso   1.00
C4206  C     0.82172   0.47574   1.15571   0.00000  Uiso   1.00
H4207  H     0.79812   0.62585   1.21074   0.00000  Uiso   1.00
N4208  N     0.70246   0.64614   1.22246   0.00000  Uiso   1.00
H4209  H     0.59903   0.54713   0.97816   0.00000  Uiso   1.00
C4210  C     0.59062   0.47357   1.18077   0.00000  Uiso   1.00
C4211  C     0.57759   0.66665   1.22068   0.00000  Uiso   1.00
C4212  C     0.84341   0.59370   1.21635   0.00000  Uiso   1.00
H4213  H     0.57364   0.64637   1.21294   0.00000  Uiso   1.00
H4214  H     0.57813   0.48011   1.07852   0.00000  Uiso   1.00
C4215  C     0.56067   0.71771   1.17055   0.00000  Uiso   1.00
C4216  C     0.88557   0.65880   1.10853   0.00000  Uiso   1.00
H4217  H     0.85559   0.57502   1.21696   0.00000  Uiso   1.00
N4218  N     0.88802   0.57720   1.16155   0.00000  Uiso   1.00
C4219  C     0.76255   0.79245   0.41178   0.00000  Uiso   1.00
C4220  C     0.84571   0.94486   0.39713   0.00000  Uiso   1.00
C4221  C     0.85876   0.78668   0.43125   0.00000  Uiso   1.00
C4222  C     0.76130   0.74505   0.30121   0.00000  Uiso   1.00
C4223  C     0.85089   0.74196   0.44998   0.00000  Uiso   1.00
H4224  H     0.79533   0.86215   0.31036   0.00000  Uiso   1.00
C4225  C     0.72074   0.85841   0.37888   0.00000  Uiso   1.00
C4226  C     0.71854   0.77183   0.32147   0.00000  Uiso   1.00
C4227  C     0.83922   0.97036   0.41531   0.00000  Uiso   1.00
H4228  H     0.60919   0.84588   0.43181   0.00000  Uiso   1.00
O4229  O     0.84049   0.74791   0.40279   0.00000  Uiso   1.00
C4230  C     0.58863   0.91419   0.34413   0.00000  Uiso   1.00
C4231  C     0.61272   0.76132   0.33800   0.00000  Uiso   1.00
N4232  N     0.77322   0.77295   0.42080   0.00000  Uiso   1.00
H4233  H     0.59571   0.96590   0.29747   0.00000  Uiso   1.00
H4234  H     0.85602   0.92620   0.45203   0.00000  Uiso   1.00
C4235  C     0.86631   0.95194   0.24873   0.00000  Uiso   1.00
C4236  C     0.58710   0.95462   0.31510   0.00000  Uiso   1.00
H4237  H     0.81337   0.73967   0.35577   0.00000  Uiso   1.00
C4238  C     0.72299   0.86064   0.46227   0.00000  Uiso   1.00
H4239  H     0.63463   0.87008   0.37822   0.00000  Uiso   1.00
C4240  C     0.82665   0.91990   0.39959   0.00000  Uiso   1.00
H4241  H     0.60910   0.74790   0.29488   0.00000  Uiso   1.00
C4242  C     0.59782   0.92909   0.32157   0.00000  Uiso   1.00
C4243  C     0.68455   0.78130   0.38506   0.00000  Uiso   1.00
C4244  C     0.76532   0.88511   0.47066   0.00000  Uiso   1.00
C4245  C     0.81758   0.77869   0.33727   0.00000  Uiso   1.00
C4246  C     0.63821   0.77126   0.35299   0.00000  Uiso   1.00
C4247  C     0.68158   0.83844   0.46072   0.00000  Uiso   1.00
H4248  H     0.63833   0.75105   0.41629   0.00000  Uiso   1.00
C4249  C     0.64972   0.92742   0.26881   0.00000  Uiso   1.00
C4250  C     0.65351   0.74844   0.36450   0.00000  Uiso   1.00
C4251  C     0.56866   0.92585   0.36106   0.00000  Uiso   1.00
H4252  H     0.61989   0.82693   0.30456   0.00000  Uiso   1.00
C4253  C     0.84287   0.81411   0.36314   0.00000  Uiso   1.00
N4254  N     0.87146   0.89876   0.25243   0.00000  Uiso   1.00
N4255  N     0.64228   0.91234   0.42442   0.00000  Uiso   1.00
C4256  C     0.84626   0.83536   0.30212   0.00000  Uiso   1.00
C4257  C     0.58479   0.86472   0.35140   0.00000  Uiso   1.00
H4258  H     0.73626   0.72887   0.34971   0.00000  Uiso   1.00
H4259  H     0.85255   0.85367   0.31246   0.00000  Uiso   1.00
C4260  C     0.80083   0.84568   0.32568   0.00000  Uiso   1.00
H4261  H     0.82351   0.74821   0.26934   0.00000  Uiso   1.00
H4262  H     0.70536   0.75619   0.33170   0.00000  Uiso   1.00
O4263  O     0.85820   0.80486   0.40854   0.00000  Uiso   1.00
C4264  C     0.79912   0.91735   0.39219   0.00000  Uiso   1.00
H4265  H     0.84259   0.84191   0.28051   0.00000  Uiso   1.00
H4266  H     0.57659   0.82996   0.43363   0.00000  Uiso   1.00
H4267  H     0.75233   0.93885   0.33918   0.00000  Uiso   1.00
H4268  H     0.57582   0.86562   0.37124   0.00000  Uiso   1.00
H4269  H     0.83760   0.85743   0.42668   0.00000  Uiso   1.00
H4270  H     0.74608   0.75548   0.37004   0.00000  Uiso   1.00
O4271  O     0.79036   0.84406   0.40648   0.00000  Uiso   1.00
H4272  H     0.78737   0.93510   0.38442   0.00000  Uiso   1.00
C4273  C     0.56284   0.96731   0.44845   0.00000  Uiso   1.00
H4274  H     0.56766   0.89554   0.44764   0.00000  Uiso   1.00
H4275  H     0.56071   0.91526   0.37908   0.00000  Uiso   1.00
C4276  C     0.60923   0.90262   0.25721   0.00000  Uiso   1.00
H4277  H     0.71083   0.79004   0.33203   0.00000  Uiso   1.00
H4278  H     0.61230   0.89545   0.39174   0.00000  Uiso   1.00
C4279  C     0.76376   0.84161   0.39643   0.00000  Uiso   1.00
H4280  H     0.70692   0.94021   0.27443   0.00000  Uiso   1.00
C4281  C     0.74991   0.81491   0.39967   0.00000  Uiso   1.00
C4282  C     0.74840   0.86408   0.38530   0.00000  Uiso   1.00
C4283  C     0.66478   0.94135   0.29342   0.00000  Uiso   1.00
C4284  C     0.65061   0.92929   0.31788   0.00000  Uiso   1.00
O4285  O     0.75993   0.89081   0.38345   0.00000  Uiso   1.00
C4286  C     0.84662   0.79537   0.38535   0.00000  Uiso   1.00
C4287  C     0.86932   0.79651   0.45701   0.00000  Uiso   1.00
C4288  C     0.74827   0.72603   0.28417   0.00000  Uiso   1.00
C4289  C     0.69471   0.93186   0.29322   0.00000  Uiso   1.00
H4290  H     0.63814   0.81581   0.35000   0.00000  Uiso   1.00
O4291  O     0.77822   0.73416   0.46449   0.00000  Uiso   1.00
H4292  H     0.64166   0.85882   0.45970   0.00000  Uiso   1.00
C4293  C     0.58754   0.77892   0.34577   0.00000  Uiso   1.00
C4294  C     0.60552   0.88760   0.34755   0.00000  Uiso   1.00
H4295  H     0.84437   0.96846   0.43679   0.00000  Uiso   1.00
H4296  H     0.61176   0.87082   0.30573   0.00000  Uiso   1.00
C4297  C     0.82724   0.87398   0.41505   0.00000  Uiso   1.00
H4298  H     0.87006   0.89360   0.46163   0.00000  Uiso   1.00
H4299  H     0.75929   0.80336   0.31573   0.00000  Uiso   1.00
H4300  H     0.84894   0.83652   0.36551   0.00000  Uiso   1.00
C4301  C     0.80026   0.87040   0.40550   0.00000  Uiso   1.00
H4302  H     0.65490   0.73520   0.44423   0.00000  Uiso   1.00
C4303  C     0.84602   0.95806   0.36864   0.00000  Uiso   1.00
H4304  H     0.64231   0.87780   0.31923   0.00000  Uiso   1.00
H4305  H     0.59587   0.84538   0.35009   0.00000  Uiso   1.00
H4306  H     0.71450   0.77564   0.29978   0.00000  Uiso   1.00
C4307  C     0.56488   0.96419   0.33115   0.00000  Uiso   1.00
H4308  H     0.78135   0.75345   0.46147   0.00000  Uiso   1.00
C4309  C     0.65845   0.92780   0.24192   0.00000  Uiso   1.00
N4310  N     0.69551   0.89545   0.35397   0.00000  Uiso   1.00
H4311  H     0.78253   0.83634   0.33387   0.00000  Uiso   1.00
C4312  C     0.87785   0.82330   0.46223   0.00000  Uiso   1.00
C4313  C     0.60250   0.78382   0.44646   0.00000  Uiso   1.00
C4314  C     0.73667   0.88512   0.46558   0.00000  Uiso   1.00
C4315  C     0.72297   0.81039   0.39428   0.00000  Uiso   1.00
C4316  C     0.57671   0.79263   0.32377   0.00000  Uiso   1.00
O4317  O     0.70945   0.78402   0.39833   0.00000  Uiso   1.00
C4318  C     0.64725   0.79791   0.35859   0.00000  Uiso   1.00
C4319  C     0.62791   0.76826   0.45716   0.00000  Uiso   1.00
C4320  C     0.75109   0.74439   0.35217   0.00000  Uiso   1.00
C4321  C     0.84621   0.94770   0.34254   0.00000  Uiso   1.00
H4322  H     0.55812   0.79472   0.27264   0.00000  Uiso   1.00
H4323  H     0.64221   0.90299   0.37018   0.00000  Uiso   1.00
C4324  C     0.82725   0.80592   0.34037   0.00000  Uiso   1.00
C4325  C     0.62237   0.91513   0.30830   0.00000  Uiso   1.00
C4326  C     0.79565   0.77915   0.31284   0.00000  Uiso   1.00
C4327  C     0.62376   0.88929   0.37261   0.00000  Uiso   1.00
H4328  H     0.84834   0.92544   0.34093   0.00000  Uiso   1.00
C4329  C     0.83761   0.76747   0.38185   0.00000  Uiso   1.00
H4330  H     0.75762   0.95312   0.30497   0.00000  Uiso   1.00
C4331  C     0.69581   0.81374   0.46068   0.00000  Uiso   1.00
C4332  C     0.74962   0.76065   0.32612   0.00000  Uiso   1.00
C4333  C     0.63458   0.93442   0.41861   0.00000  Uiso   1.00
C4334  C     0.85166   0.75882   0.42777   0.00000  Uiso   1.00
H4335  H     0.70595   0.94057   0.31115   0.00000  Uiso   1.00
H4336  H     0.58739   0.82862   0.28599   0.00000  Uiso   1.00
H4337  H     0.66418   0.91345   0.32650   0.00000  Uiso   1.00
H4338  H     0.69700   0.90920   0.29262   0.00000  Uiso   1.00
C4339  C     0.59365   0.83811   0.44679   0.00000  Uiso   1.00
H4340  H     0.77191   0.79679   0.34916   0.00000  Uiso   1.00
C4341  C     0.72364   0.91025   0.46670   0.00000  Uiso   1.00
C4342  C     0.76808   0.78724   0.32821   0.00000  Uiso   1.00
C4343  C     0.82285   0.76072   0.35739   0.00000  Uiso   1.00
C4344  C     0.78754   0.75359   0.29446   0.00000  Uiso   1.00
H4345  H     0.78772   0.81410   0.28357   0.00000  Uiso   1.00
C4346  C     0.84565   0.96226   0.31903   0.00000  Uiso   1.00
C4347  C     0.80251   0.74197   0.27299   0.00000  Uiso   1.00
C4348  C     0.58319   0.85864   0.46736   0.00000  Uiso   1.00
C4349  C     0.67100   0.80394   0.37292   0.00000  Uiso   1.00
C4350  C     0.63610   0.74652   0.43699   0.00000  Uiso   1.00
N4351  N     0.71347   0.93142   0.46760   0.00000  Uiso   1.00
H4352  H     0.75612   0.97262   0.38679   0.00000  Uiso   1.00
H4353  H     0.82030   0.79654   0.28106   0.00000  Uiso   1.00
C4354  C     0.80407   0.80436   0.29572   0.00000  Uiso   1.00
C4355  C     0.57483   0.77743   0.37095   0.00000  Uiso   1.00
O4356  O     0.58563   0.95370   0.43847   0.00000  Uiso   1.00
C4357  C     0.67418   0.75503   0.38244   0.00000  Uiso   1.00
C4358  C     0.60685   0.81595   0.28938   0.00000  Uiso   1.00
C4359  C     0.78619   0.89235   0.39394   0.00000  Uiso   1.00
C4360  C     0.84246   0.89805   0.41024   0.00000  Uiso   1.00
C4361  C     0.81973   0.82384   0.31488   0.00000  Uiso   1.00
C4362  C     0.62138   0.88643   0.31963   0.00000  Uiso   1.00
C4363  C     0.70699   0.87813   0.36489   0.00000  Uiso   1.00
H4364  H     0.81664   0.96897   0.41570   0.00000  Uiso   1.00
C4365  C     0.67811   0.78941   0.45901   0.00000  Uiso   1.00
H4366  H     0.60260   0.78636   0.42349   0.00000  Uiso   1.00
O4367  O     0.67989   0.83091   0.37560   0.00000  Uiso   1.00
C4368  C     0.70713   0.83368   0.38569   0.00000  Uiso   1.00
H4369  H     0.61546   0.81706   0.26857   0.00000  Uiso   1.00
H4370  H     0.58985   0.89412   0.26317   0.00000  Uiso   1.00
H4371  H     0.81269   0.85617   0.34155   0.00000  Uiso   1.00
C4372  C     0.87406   0.96791   0.22731   0.00000  Uiso   1.00
H4373  H     0.63512   0.77218   0.29754   0.00000  Uiso   1.00
C4374  C     0.59396   0.78903   0.29824   0.00000  Uiso   1.00
C4375  C     0.61420   0.76583   0.30660   0.00000  Uiso   1.00
C4376  C     0.62558   0.91398   0.27688   0.00000  Uiso   1.00
H4377  H     0.86265   0.81959   0.30269   0.00000  Uiso   1.00
H4378  H     0.56970   0.86288   0.33410   0.00000  Uiso   1.00
C4379  C     0.64866   0.79125   0.45693   0.00000  Uiso   1.00
C4380  C     0.76300   0.95452   0.32759   0.00000  Uiso   1.00
C4381  C     0.61010   0.73198   0.34862   0.00000  Uiso   1.00
H4382  H     0.67848   0.93745   0.23535   0.00000  Uiso   1.00
C4383  C     0.61725   0.90121   0.22977   0.00000  Uiso   1.00
O4384  O     0.72402   0.80997   0.46083   0.00000  Uiso   1.00
H4385  H     0.77065   0.73300   0.35186   0.00000  Uiso   1.00
H4386  H     0.58305   0.76542   0.38916   0.00000  Uiso   1.00
C4387  C     0.65226   0.83916   0.46230   0.00000  Uiso   1.00
H4388  H     0.58197   0.77229   0.45327   0.00000  Uiso   1.00
C4389  C     0.63675   0.81485   0.46346   0.00000  Uiso   1.00
C4390  C     0.60465   0.81146   0.46228   0.00000  Uiso   1.00
C4391  C     0.86882   0.92245   0.25059   0.00000  Uiso   1.00
O4392  O     0.84843   0.94950   0.29445   0.00000  Uiso   1.00
H4393  H     0.68615   0.73827   0.39211   0.00000  Uiso   1.00
H4394  H     0.58765   0.77626   0.25648   0.00000  Uiso   1.00
O4395  O     0.69449   0.86240   0.46042   0.00000  Uiso   1.00
C4396  C     0.57540   0.77929   0.27431   0.00000  Uiso   1.00
C4397  C     0.87179   0.90486   0.41694   0.00000  Uiso   1.00
C4398  C     0.87435   0.93136   0.39959   0.00000  Uiso   1.00
C4399  C     0.76565   0.83661   0.47089   0.00000  Uiso   1.00
H4400  H     0.68781   0.76800   0.45387   0.00000  Uiso   1.00
H4401  H     0.61171   0.89565   0.46711   0.00000  Uiso   1.00
C4402  C     0.87427   0.91223   0.44776   0.00000  Uiso   1.00
H4403  H     0.61887   0.73117   0.43566   0.00000  Uiso   1.00
H4404  H     0.64506   0.94250   0.33490   0.00000  Uiso   1.00
C4405  C     0.73707   0.83647   0.46503   0.00000  Uiso   1.00
C4406  C     0.66061   0.97275   0.29076   0.00000  Uiso   1.00
H4407  H     0.78439   0.94962   0.33009   0.00000  Uiso   1.00
C4408  C     0.62590   0.96092   0.41086   0.00000  Uiso   1.00
H4409  H     0.71267   0.95078   0.36538   0.00000  Uiso   1.00
C4410  C     0.85565   0.96528   0.27300   0.00000  Uiso   1.00
O4411  O     0.66431   0.96309   0.37978   0.00000  Uiso   1.00
H4412  H     0.56508   0.75947   0.27949   0.00000  Uiso   1.00
C4413  C     0.55806   0.87681   0.45871   0.00000  Uiso   1.00
H4414  H     0.88209   0.92777   0.37910   0.00000  Uiso   1.00
C4415  C     0.60093   0.97093   0.41990   0.00000  Uiso   1.00
H4416  H     0.59856   0.72969   0.36805   0.00000  Uiso   1.00
C4417  C     0.70639   0.97149   0.35905   0.00000  Uiso   1.00
H4418  H     0.65274   0.72741   0.31069   0.00000  Uiso   1.00
H4419  H     0.88245   0.87392   0.38583   0.00000  Uiso   1.00
N4420  N     0.88408   0.84545   0.46651   0.00000  Uiso   1.00
H4421  H     0.88813   0.94592   0.40952   0.00000  Uiso   1.00
H4422  H     0.85565   0.73867   0.22684   0.00000  Uiso   1.00
C4423  C     0.69568   0.77113   0.52620   0.00000  Uiso   1.00
C4424  C     0.86692   0.74106   0.52255   0.00000  Uiso   1.00
O4425  O     0.64257   0.77676   0.63445   0.00000  Uiso   1.00
C4426  C     0.65686   0.73663   0.69995   0.00000  Uiso   1.00
C4427  C     0.83388   0.90182   0.59393   0.00000  Uiso   1.00
C4428  C     0.72325   0.77455   0.69333   0.00000  Uiso   1.00
H4429  H     0.61135   0.94543   0.66662   0.00000  Uiso   1.00
H4430  H     0.70566   0.86312   0.53892   0.00000  Uiso   1.00
C4431  C     0.78872   0.94592   0.69136   0.00000  Uiso   1.00
H4432  H     0.62064   0.87061   0.49241   0.00000  Uiso   1.00
C4433  C     0.64477   0.74681   0.67486   0.00000  Uiso   1.00
H4434  H     0.72650   0.90118   0.52112   0.00000  Uiso   1.00
H4435  H     0.72231   0.84700   0.56712   0.00000  Uiso   1.00
C4436  C     0.57231   0.79147   0.50401   0.00000  Uiso   1.00
C4437  C     0.82850   0.81349   0.64623   0.00000  Uiso   1.00
C4438  C     0.84731   0.78818   0.64316   0.00000  Uiso   1.00
H4439  H     0.61240   0.86722   0.59279   0.00000  Uiso   1.00
H4440  H     0.87730   0.73315   0.63881   0.00000  Uiso   1.00
H4441  H     0.68905   0.72401   0.55460   0.00000  Uiso   1.00
H4442  H     0.72323   0.79023   0.57362   0.00000  Uiso   1.00
O4443  O     0.80634   0.85950   0.48751   0.00000  Uiso   1.00
N4444  N     0.81023   0.95326   0.68655   0.00000  Uiso   1.00
C4445  C     0.72964   0.89152   0.56361   0.00000  Uiso   1.00
C4446  C     0.76024   0.88233   0.55868   0.00000  Uiso   1.00
H4447  H     0.80714   0.80755   0.64661   0.00000  Uiso   1.00
C4448  C     0.70931   0.92388   0.71605   0.00000  Uiso   1.00
C4449  C     0.69707   0.76416   0.68828   0.00000  Uiso   1.00
H4450  H     0.59267   0.89397   0.49681   0.00000  Uiso   1.00
H4451  H     0.83036   0.82858   0.62831   0.00000  Uiso   1.00
O4452  O     0.80681   0.89284   0.63377   0.00000  Uiso   1.00
C4453  C     0.59043   0.93819   0.57516   0.00000  Uiso   1.00
C4454  C     0.71475   0.92755   0.68823   0.00000  Uiso   1.00
C4455  C     0.71854   0.75675   0.54373   0.00000  Uiso   1.00
C4456  C     0.75074   0.74401   0.50187   0.00000  Uiso   1.00
H4457  H     0.68312   0.78476   0.54193   0.00000  Uiso   1.00
C4458  C     0.68334   0.77497   0.66468   0.00000  Uiso   1.00
H4459  H     0.76294   0.87098   0.53903   0.00000  Uiso   1.00
H4460  H     0.63943   0.75521   0.57656   0.00000  Uiso   1.00
H4461  H     0.85082   0.86483   0.51946   0.00000  Uiso   1.00
H4462  H     0.87610   0.95502   0.56904   0.00000  Uiso   1.00
H4463  H     0.76699   0.86867   0.57472   0.00000  Uiso   1.00
C4464  C     0.76997   0.72585   0.49053   0.00000  Uiso   1.00
C4465  C     0.83251   0.89341   0.62132   0.00000  Uiso   1.00
H4466  H     0.64726   0.94802   0.53580   0.00000  Uiso   1.00
H4467  H     0.81989   0.76030   0.66495   0.00000  Uiso   1.00
C4468  C     0.70585   0.73582   0.56429   0.00000  Uiso   1.00
C4469  C     0.77714   0.81042   0.47406   0.00000  Uiso   1.00
H4470  H     0.84053   0.79096   0.59899   0.00000  Uiso   1.00
C4471  C     0.73563   0.77859   0.55909   0.00000  Uiso   1.00
H4472  H     0.81463   0.90801   0.58490   0.00000  Uiso   1.00
C4473  C     0.83144   0.87789   0.67463   0.00000  Uiso   1.00
N4474  N     0.78774   0.78895   0.47711   0.00000  Uiso   1.00
C4475  C     0.61847   0.73606   0.66886   0.00000  Uiso   1.00
C4476  C     0.62615   0.74628   0.55952   0.00000  Uiso   1.00
C4477  C     0.87795   0.79848   0.64391   0.00000  Uiso   1.00
N4478  N     0.57209   0.83449   0.60665   0.00000  Uiso   1.00
H4479  H     0.59966   0.84274   0.56768   0.00000  Uiso   1.00
C4480  C     0.60341   0.87961   0.48167   0.00000  Uiso   1.00
C4481  C     0.78033   0.85991   0.47605   0.00000  Uiso   1.00
C4482  C     0.62216   0.94605   0.68725   0.00000  Uiso   1.00
C4483  C     0.58666   0.74097   0.59244   0.00000  Uiso   1.00
C4484  C     0.87471   0.76891   0.52625   0.00000  Uiso   1.00
C4485  C     0.72371   0.91227   0.53974   0.00000  Uiso   1.00
H4486  H     0.68131   0.75733   0.51560   0.00000  Uiso   1.00
H4487  H     0.57641   0.76026   0.58635   0.00000  Uiso   1.00
H4488  H     0.87925   0.73289   0.70134   0.00000  Uiso   1.00
C4489  C     0.84018   0.76813   0.66591   0.00000  Uiso   1.00
H4490  H     0.82939   0.75787   0.61327   0.00000  Uiso   1.00
C4491  C     0.78279   0.86336   0.70086   0.00000  Uiso   1.00
H4492  H     0.85204   0.74927   0.66877   0.00000  Uiso   1.00
H4493  H     0.62895   0.76971   0.50148   0.00000  Uiso   1.00
C4494  C     0.80740   0.86372   0.71594   0.00000  Uiso   1.00
H4495  H     0.57792   0.76970   0.50185   0.00000  Uiso   1.00
H4496  H     0.75927   0.92941   0.60210   0.00000  Uiso   1.00
H4497  H     0.66570   0.96051   0.72189   0.00000  Uiso   1.00
C4498  C     0.83078   0.93242   0.52309   0.00000  Uiso   1.00
H4499  H     0.75240   0.77111   0.57259   0.00000  Uiso   1.00
H4500  H     0.87851   0.82637   0.68101   0.00000  Uiso   1.00
C4501  C     0.65678   0.76569   0.65774   0.00000  Uiso   1.00
C4502  C     0.87217   0.73192   0.57143   0.00000  Uiso   1.00
O4503  O     0.85697   0.88137   0.66291   0.00000  Uiso   1.00
C4504  C     0.74111   0.93551   0.67989   0.00000  Uiso   1.00
H4505  H     0.59419   0.94242   0.51769   0.00000  Uiso   1.00
H4506  H     0.74414   0.76237   0.48999   0.00000  Uiso   1.00
N4507  N     0.74023   0.86466   0.64546   0.00000  Uiso   1.00
H4508  H     0.56869   0.72733   0.59993   0.00000  Uiso   1.00
C4509  C     0.85743   0.88868   0.63548   0.00000  Uiso   1.00
C4510  C     0.86619   0.91471   0.54994   0.00000  Uiso   1.00
C4511  C     0.75991   0.86827   0.65811   0.00000  Uiso   1.00
H4512  H     0.61451   0.96533   0.49763   0.00000  Uiso   1.00
C4513  C     0.71063   0.86621   0.56075   0.00000  Uiso   1.00
C4514  C     0.57716   0.93132   0.59838   0.00000  Uiso   1.00
H4515  H     0.75076   0.74021   0.59883   0.00000  Uiso   1.00
C4516  C     0.84478   0.90819   0.52928   0.00000  Uiso   1.00
C4517  C     0.55747   0.84721   0.51351   0.00000  Uiso   1.00
C4518  C     0.73923   0.92254   0.60759   0.00000  Uiso   1.00
H4519  H     0.59455   0.91954   0.56045   0.00000  Uiso   1.00
C4520  C     0.88327   0.89441   0.59311   0.00000  Uiso   1.00
H4521  H     0.72713   0.74059   0.64304   0.00000  Uiso   1.00
C4522  C     0.84271   0.95776   0.53851   0.00000  Uiso   1.00
H4523  H     0.77258   0.90147   0.55728   0.00000  Uiso   1.00
C4524  C     0.56981   0.95287   0.61742   0.00000  Uiso   1.00
C4525  C     0.59901   0.96515   0.51595   0.00000  Uiso   1.00
C4526  C     0.88243   0.74809   0.71803   0.00000  Uiso   1.00
H4527  H     0.70289   0.91992   0.54037   0.00000  Uiso   1.00
C4528  C     0.73844   0.73962   0.52738   0.00000  Uiso   1.00
C4529  C     0.86036   0.75080   0.47635   0.00000  Uiso   1.00
H4530  H     0.88644   0.76616   0.70434   0.00000  Uiso   1.00
C4531  C     0.80085   0.90957   0.49147   0.00000  Uiso   1.00
C4532  C     0.72354   0.90499   0.59075   0.00000  Uiso   1.00
H4533  H     0.69911   0.74689   0.58309   0.00000  Uiso   1.00
H4534  H     0.62209   0.80669   0.59237   0.00000  Uiso   1.00
H4535  H     0.62432   0.82411   0.53389   0.00000  Uiso   1.00
C4536  C     0.64349   0.83928   0.53720   0.00000  Uiso   1.00
C4537  C     0.61227   0.86035   0.57049   0.00000  Uiso   1.00
H4538  H     0.66242   0.82633   0.53587   0.00000  Uiso   1.00
C4539  C     0.64285   0.81245   0.59936   0.00000  Uiso   1.00
O4540  O     0.57050   0.90377   0.60434   0.00000  Uiso   1.00
C4541  C     0.64132   0.85494   0.56335   0.00000  Uiso   1.00
C4542  C     0.81590   0.88517   0.49725   0.00000  Uiso   1.00
C4543  C     0.68673   0.87173   0.57950   0.00000  Uiso   1.00
H4544  H     0.60344   0.87737   0.55813   0.00000  Uiso   1.00
H4545  H     0.84073   0.77927   0.68507   0.00000  Uiso   1.00
H4546  H     0.70030   0.73031   0.62158   0.00000  Uiso   1.00
C4547  C     0.69863   0.89442   0.59923   0.00000  Uiso   1.00
C4548  C     0.68067   0.84498   0.59524   0.00000  Uiso   1.00
H4549  H     0.71489   0.83947   0.62323   0.00000  Uiso   1.00
C4550  C     0.65379   0.83668   0.58748   0.00000  Uiso   1.00
C4551  C     0.68741   0.90188   0.62445   0.00000  Uiso   1.00
C4552  C     0.69276   0.83081   0.61713   0.00000  Uiso   1.00
C4553  C     0.68214   0.80749   0.62887   0.00000  Uiso   1.00
C4554  C     0.65525   0.79899   0.62045   0.00000  Uiso   1.00
C4555  C     0.66006   0.88008   0.56498   0.00000  Uiso   1.00
H4556  H     0.66782   0.89299   0.63207   0.00000  Uiso   1.00
C4557  C     0.76280   0.93747   0.69875   0.00000  Uiso   1.00
H4558  H     0.64985   0.89629   0.57663   0.00000  Uiso   1.00
O4559  O     0.69693   0.79492   0.64996   0.00000  Uiso   1.00
H4560  H     0.64425   0.85446   0.52128   0.00000  Uiso   1.00
H4561  H     0.66412   0.89050   0.54387   0.00000  Uiso   1.00
C4562  C     0.86937   0.94580   0.54932   0.00000  Uiso   1.00
C4563  C     0.70365   0.91801   0.64364   0.00000  Uiso   1.00
O4564  O     0.69285   0.92347   0.67057   0.00000  Uiso   1.00
C4565  C     0.72930   0.92876   0.63443   0.00000  Uiso   1.00
C4566  C     0.85978   0.90402   0.57951   0.00000  Uiso   1.00
H4567  H     0.55678   0.93351   0.47759   0.00000  Uiso   1.00
C4568  C     0.78311   0.87112   0.67302   0.00000  Uiso   1.00
H4569  H     0.61608   0.76336   0.54989   0.00000  Uiso   1.00
H4570  H     0.73724   0.93060   0.54196   0.00000  Uiso   1.00
H4571  H     0.82624   0.73013   0.70942   0.00000  Uiso   1.00
H4572  H     0.79840   0.95305   0.50014   0.00000  Uiso   1.00
C4573  C     0.60438   0.72437   0.57096   0.00000  Uiso   1.00
C4574  C     0.68379   0.74496   0.70610   0.00000  Uiso   1.00
C4575  C     0.59753   0.96518   0.56886   0.00000  Uiso   1.00
C4576  C     0.80911   0.93310   0.50445   0.00000  Uiso   1.00
H4577  H     0.83503   0.82513   0.66429   0.00000  Uiso   1.00
C4578  C     0.83203   0.87136   0.70268   0.00000  Uiso   1.00
H4579  H     0.70617   0.78319   0.51155   0.00000  Uiso   1.00
C4580  C     0.86898   0.77857   0.47940   0.00000  Uiso   1.00
C4581  C     0.83877   0.88502   0.51447   0.00000  Uiso   1.00
C4582  C     0.80753   0.88152   0.65973   0.00000  Uiso   1.00
C4583  C     0.58484   0.81280   0.48857   0.00000  Uiso   1.00
C4584  C     0.84494   0.77438   0.61463   0.00000  Uiso   1.00
C4585  C     0.57427   0.83983   0.49137   0.00000  Uiso   1.00
H4586  H     0.74744   0.79062   0.54251   0.00000  Uiso   1.00
H4587  H     0.63936   0.93144   0.68597   0.00000  Uiso   1.00
C4588  C     0.87558   0.76066   0.57533   0.00000  Uiso   1.00
C4589  C     0.88142   0.88575   0.62076   0.00000  Uiso   1.00
C4590  C     0.64140   0.96988   0.54232   0.00000  Uiso   1.00
N4591  N     0.74479   0.78327   0.69804   0.00000  Uiso   1.00
H4592  H     0.58425   0.72384   0.52712   0.00000  Uiso   1.00
O4593  O     0.74779   0.94125   0.65171   0.00000  Uiso   1.00
H4594  H     0.82343   0.95205   0.58059   0.00000  Uiso   1.00
C4595  C     0.56346   0.85128   0.62135   0.00000  Uiso   1.00
O4596  O     0.87720   0.78747   0.50565   0.00000  Uiso   1.00
H4597  H     0.64009   0.73856   0.54407   0.00000  Uiso   1.00
H4598  H     0.59960   0.74912   0.60879   0.00000  Uiso   1.00
H4599  H     0.60863   0.93804   0.70333   0.00000  Uiso   1.00
C4600  C     0.55800   0.89920   0.62995   0.00000  Uiso   1.00
H4601  H     0.80057   0.96671   0.55493   0.00000  Uiso   1.00
N4602  N     0.59790   0.72580   0.66301   0.00000  Uiso   1.00
C4603  C     0.85648   0.87229   0.71810   0.00000  Uiso   1.00
C4604  C     0.87432   0.76486   0.60575   0.00000  Uiso   1.00
C4605  C     0.87756   0.77831   0.55264   0.00000  Uiso   1.00
O4606  O     0.86083   0.73063   0.49676   0.00000  Uiso   1.00
H4607  H     0.88161   0.79886   0.55847   0.00000  Uiso   1.00
O4608  O     0.77835   0.91047   0.47429   0.00000  Uiso   1.00
H4609  H     0.60976   0.73911   0.48745   0.00000  Uiso   1.00
H4610  H     0.64685   0.74105   0.48694   0.00000  Uiso   1.00
C4611  C     0.88012   0.96578   0.71470   0.00000  Uiso   1.00
C4612  C     0.62711   0.75386   0.48534   0.00000  Uiso   1.00
C4613  C     0.88249   0.73587   0.61726   0.00000  Uiso   1.00
H4614  H     0.88505   0.94809   0.53389   0.00000  Uiso   1.00
C4615  C     0.82296   0.96632   0.56177   0.00000  Uiso   1.00
O4616  O     0.75769   0.85509   0.71359   0.00000  Uiso   1.00
C4617  C     0.78261   0.76058   0.83032   0.00000  Uiso   1.00
H4618  H     0.62073   0.86965   0.95642   0.00000  Uiso   1.00
H4619  H     0.73200   0.87266   0.84967   0.00000  Uiso   1.00
C4620  C     0.74126   0.87589   0.92009   0.00000  Uiso   1.00
H4621  H     0.72171   0.81457   0.84240   0.00000  Uiso   1.00
H4622  H     0.73396   0.88839   0.93763   0.00000  Uiso   1.00
C4623  C     0.60590   0.92672   0.95617   0.00000  Uiso   1.00
H4624  H     0.79886   0.81956   0.83424   0.00000  Uiso   1.00
H4625  H     0.86454   0.77151   0.95098   0.00000  Uiso   1.00
H4626  H     0.62465   0.93883   0.74545   0.00000  Uiso   1.00
C4627  C     0.71253   0.81401   0.79730   0.00000  Uiso   1.00
C4628  C     0.85214   0.83982   0.94151   0.00000  Uiso   1.00
H4629  H     0.71172   0.74375   0.88116   0.00000  Uiso   1.00
C4630  C     0.74348   0.91589   0.80943   0.00000  Uiso   1.00
H4631  H     0.74960   0.77183   0.87327   0.00000  Uiso   1.00
C4632  C     0.87707   0.93189   0.90867   0.00000  Uiso   1.00
H4633  H     0.71484   0.83501   0.74376   0.00000  Uiso   1.00
C4634  C     0.73812   0.82498   0.78103   0.00000  Uiso   1.00
H4635  H     0.72223   0.91083   0.81588   0.00000  Uiso   1.00
C4636  C     0.77103   0.73530   0.77975   0.00000  Uiso   1.00
C4637  C     0.63849   0.95659   0.78494   0.00000  Uiso   1.00
H4638  H     0.77353   0.96295   0.85962   0.00000  Uiso   1.00
C4639  C     0.73027   0.91881   0.89358   0.00000  Uiso   1.00
C4640  C     0.76330   0.82254   0.79365   0.00000  Uiso   1.00
H4641  H     0.60357   0.93721   0.80402   0.00000  Uiso   1.00
H4642  H     0.80129   0.91672   0.88366   0.00000  Uiso   1.00
C4643  C     0.77212   0.76918   0.87867   0.00000  Uiso   1.00
H4644  H     0.81780   0.86831   0.94950   0.00000  Uiso   1.00
H4645  H     0.67889   0.93956   0.77445   0.00000  Uiso   1.00
C4646  C     0.72810   0.80290   0.82389   0.00000  Uiso   1.00
C4647  C     0.84268   0.77641   0.74373   0.00000  Uiso   1.00
C4648  C     0.75628   0.95619   0.87324   0.00000  Uiso   1.00
C4649  C     0.81450   0.96406   0.93778   0.00000  Uiso   1.00
H4650  H     0.80489   0.78539   0.94842   0.00000  Uiso   1.00
C4651  C     0.76498   0.91270   0.82777   0.00000  Uiso   1.00
H4652  H     0.77014   0.82275   0.85962   0.00000  Uiso   1.00
C4653  C     0.77577   0.92294   0.77085   0.00000  Uiso   1.00
H4654  H     0.68001   0.78397   0.80137   0.00000  Uiso   1.00
C4655  C     0.82005   0.78067   0.85907   0.00000  Uiso   1.00
H4656  H     0.84092   0.93177   0.86807   0.00000  Uiso   1.00
C4657  C     0.72600   0.88774   0.89337   0.00000  Uiso   1.00
C4658  C     0.83973   0.86475   0.94415   0.00000  Uiso   1.00
C4659  C     0.68419   0.91312   0.72520   0.00000  Uiso   1.00
H4660  H     0.68008   0.84267   0.78629   0.00000  Uiso   1.00
C4661  C     0.78920   0.78087   0.85296   0.00000  Uiso   1.00
H4662  H     0.82455   0.95121   0.84460   0.00000  Uiso   1.00
C4663  C     0.69275   0.83823   0.80502   0.00000  Uiso   1.00
H4664  H     0.59214   0.94498   0.95451   0.00000  Uiso   1.00
H4665  H     0.75435   0.77259   0.76594   0.00000  Uiso   1.00
H4666  H     0.84985   0.92775   0.83345   0.00000  Uiso   1.00
H4667  H     0.73644   0.85451   0.92549   0.00000  Uiso   1.00
C4668  C     0.81142   0.80609   0.94510   0.00000  Uiso   1.00
C4669  C     0.76790   0.77453   0.80933   0.00000  Uiso   1.00
H4670  H     0.81807   0.72897   0.74636   0.00000  Uiso   1.00
C4671  C     0.76428   0.76286   0.78316   0.00000  Uiso   1.00
C4672  C     0.79198   0.91483   0.81805   0.00000  Uiso   1.00
C4673  C     0.78593   0.83295   0.78003   0.00000  Uiso   1.00
C4674  C     0.74826   0.91977   0.78065   0.00000  Uiso   1.00
C4675  C     0.84179   0.81023   0.95264   0.00000  Uiso   1.00
C4676  C     0.69547   0.87822   0.89127   0.00000  Uiso   1.00
H4677  H     0.77833   0.74784   0.88204   0.00000  Uiso   1.00
C4678  C     0.74853   0.92901   0.87321   0.00000  Uiso   1.00
C4679  C     0.83486   0.72581   0.73007   0.00000  Uiso   1.00
H4680  H     0.85671   0.79389   0.74002   0.00000  Uiso   1.00
H4681  H     0.84161   0.87471   0.85005   0.00000  Uiso   1.00
H4682  H     0.63055   0.94542   0.82891   0.00000  Uiso   1.00
C4683  C     0.69357   0.79126   0.78481   0.00000  Uiso   1.00
H4684  H     0.68135   0.88639   0.90848   0.00000  Uiso   1.00
H4685  H     0.76319   0.88027   0.91710   0.00000  Uiso   1.00
H4686  H     0.70516   0.77275   0.77777   0.00000  Uiso   1.00
O4687  O     0.69673   0.73788   0.73060   0.00000  Uiso   1.00
C4688  C     0.85359   0.93619   0.92386   0.00000  Uiso   1.00
C4689  C     0.77911   0.80979   0.84330   0.00000  Uiso   1.00
H4690  H     0.60175   0.95926   0.76287   0.00000  Uiso   1.00
C4691  C     0.76224   0.90495   0.85919   0.00000  Uiso   1.00
C4692  C     0.61976   0.95311   0.81004   0.00000  Uiso   1.00
C4693  C     0.76071   0.80353   0.81879   0.00000  Uiso   1.00
C4694  C     0.72228   0.73034   0.86623   0.00000  Uiso   1.00
C4695  C     0.75827   0.93063   0.72547   0.00000  Uiso   1.00
H4696  H     0.80532   0.81349   0.92447   0.00000  Uiso   1.00
O4697  O     0.80991   0.85388   0.74325   0.00000  Uiso   1.00
C4698  C     0.86127   0.79003   0.93765   0.00000  Uiso   1.00
H4699  H     0.74231   0.72590   0.87660   0.00000  Uiso   1.00
C4700  C     0.56925   0.89068   0.94201   0.00000  Uiso   1.00
H4701  H     0.72169   0.78111   0.82964   0.00000  Uiso   1.00
C4702  C     0.73629   0.83474   0.75335   0.00000  Uiso   1.00
H4703  H     0.81846   0.92459   0.78570   0.00000  Uiso   1.00
H4704  H     0.68652   0.88396   0.87098   0.00000  Uiso   1.00
C4705  C     0.82561   0.87988   0.83531   0.00000  Uiso   1.00
C4706  C     0.78536   0.84453   0.75468   0.00000  Uiso   1.00
H4707  H     0.67873   0.83181   0.82158   0.00000  Uiso   1.00
H4708  H     0.75746   0.86120   0.87087   0.00000  Uiso   1.00
C4709  C     0.73108   0.92557   0.73446   0.00000  Uiso   1.00
H4710  H     0.85015   0.78284   0.91841   0.00000  Uiso   1.00
O4711  O     0.78117   0.93120   0.74419   0.00000  Uiso   1.00
H4712  H     0.82509   0.77747   0.72882   0.00000  Uiso   1.00
O4713  O     0.83972   0.91346   0.93738   0.00000  Uiso   1.00
C4714  C     0.87769   0.83615   0.92970   0.00000  Uiso   1.00
H4715  H     0.80657   0.82756   0.78946   0.00000  Uiso   1.00
H4716  H     0.70198   0.93277   0.92762   0.00000  Uiso   1.00
H4717  H     0.68337   0.80101   0.76794   0.00000  Uiso   1.00
H4718  H     0.80866   0.86385   0.83559   0.00000  Uiso   1.00
C4719  C     0.81118   0.90665   0.84286   0.00000  Uiso   1.00
N4720  N     0.66321   0.90446   0.73268   0.00000  Uiso   1.00
H4721  H     0.77395   0.78246   0.89766   0.00000  Uiso   1.00
H4722  H     0.82352   0.79267   0.87768   0.00000  Uiso   1.00
C4723  C     0.88749   0.80676   0.93064   0.00000  Uiso   1.00
H4724  H     0.65565   0.91376   0.78427   0.00000  Uiso   1.00
N4725  N     0.87588   0.87293   0.73200   0.00000  Uiso   1.00
C4726  C     0.74367   0.87938   0.86799   0.00000  Uiso   1.00
H4727  H     0.57537   0.90026   0.92362   0.00000  Uiso   1.00
C4728  C     0.79665   0.92046   0.79010   0.00000  Uiso   1.00
H4729  H     0.70434   0.85710   0.81079   0.00000  Uiso   1.00
H4730  H     0.61883   0.92652   0.93897   0.00000  Uiso   1.00
O4731  O     0.72671   0.91899   0.76191   0.00000  Uiso   1.00
C4732  C     0.85239   0.88845   0.93388   0.00000  Uiso   1.00
C4733  C     0.83269   0.93019   0.84725   0.00000  Uiso   1.00
C4734  C     0.71861   0.93781   0.91224   0.00000  Uiso   1.00
C4735  C     0.87024   0.73683   0.76417   0.00000  Uiso   1.00
C4736  C     0.75955   0.84543   0.74054   0.00000  Uiso   1.00
C4737  C     0.72669   0.96555   0.91229   0.00000  Uiso   1.00
C4738  C     0.58866   0.90062   0.96540   0.00000  Uiso   1.00
C4739  C     0.84161   0.96261   0.92499   0.00000  Uiso   1.00
H4740  H     0.83161   0.78908   0.84267   0.00000  Uiso   1.00
C4741  C     0.79100   0.73354   0.82615   0.00000  Uiso   1.00
H4742  H     0.69715   0.85590   0.89386   0.00000  Uiso   1.00
H4743  H     0.79997   0.81995   0.96180   0.00000  Uiso   1.00
H4744  H     0.83628   0.87988   0.81546   0.00000  Uiso   1.00
C4745  C     0.79338   0.90208   0.86838   0.00000  Uiso   1.00
H4746  H     0.79498   0.88063   0.87664   0.00000  Uiso   1.00
C4747  C     0.66245   0.93552   0.78867   0.00000  Uiso   1.00
C4748  C     0.87737   0.88509   0.91923   0.00000  Uiso   1.00
H4749  H     0.88002   0.81626   0.87144   0.00000  Uiso   1.00
H4750  H     0.57189   0.86743   0.93838   0.00000  Uiso   1.00
H4751  H     0.82632   0.75877   0.86264   0.00000  Uiso   1.00
H4752  H     0.72468   0.74213   0.84701   0.00000  Uiso   1.00
C4753  C     0.62295   0.95787   0.75852   0.00000  Uiso   1.00
N4754  N     0.79287   0.96560   0.94819   0.00000  Uiso   1.00
C4755  C     0.85735   0.74757   0.73708   0.00000  Uiso   1.00
H4756  H     0.83321   0.77919   0.76440   0.00000  Uiso   1.00
H4757  H     0.67201   0.93536   0.80869   0.00000  Uiso   1.00
C4758  C     0.88366   0.96975   0.76496   0.00000  Uiso   1.00
C4759  C     0.85928   0.73192   0.79066   0.00000  Uiso   1.00
H4760  H     0.88250   0.92727   0.79709   0.00000  Uiso   1.00
H4761  H     0.68229   0.72653   0.83161   0.00000  Uiso   1.00
H4762  H     0.83698   0.73026   0.79237   0.00000  Uiso   1.00
C4763  C     0.87648   0.72322   0.81218   0.00000  Uiso   1.00
H4764  H     0.62108   0.93121   0.97242   0.00000  Uiso   1.00
H4765  H     0.60865   0.97170   0.81684   0.00000  Uiso   1.00
H4766  H     0.67093   0.74853   1.01853   0.00000  Uiso   1.00
H4767  H     0.62075   0.88553   0.99015   0.00000  Uiso   1.00
C4768  C     0.88629   0.88786   1.12136   0.00000  Uiso   1.00
C4769  C     0.60156   0.79721   1.09694   0.00000  Uiso   1.00
C4770  C     0.57265   0.89883   1.14262   0.00000  Uiso   1.00
C4771  C     0.56533   0.73124   1.00526   0.00000  Uiso   1.00
C4772  C     0.70227   0.91325   1.02582   0.00000  Uiso   1.00
O4773  O     0.61357   0.90568   1.10252   0.00000  Uiso   1.00
N4774  N     0.75419   0.75917   1.17181   0.00000  Uiso   1.00
H4775  H     0.67652   0.81685   1.07923   0.00000  Uiso   1.00
O4776  O     0.56057   0.92784   1.06124   0.00000  Uiso   1.00
H4777  H     0.73267   0.94534   1.03276   0.00000  Uiso   1.00
H4778  H     0.75636   0.94742   1.13010   0.00000  Uiso   1.00
C4779  C     0.61538   0.87698   1.18890   0.00000  Uiso   1.00
C4780  C     0.64144   0.79573   1.06595   0.00000  Uiso   1.00
C4781  C     0.65506   0.81371   1.08326   0.00000  Uiso   1.00
C4782  C     0.84781   0.79797   1.17425   0.00000  Uiso   1.00
N4783  N     0.57588   0.91066   1.16359   0.00000  Uiso   1.00
C4784  C     0.63325   0.88829   1.05914   0.00000  Uiso   1.00
C4785  C     0.60238   0.85659   1.17357   0.00000  Uiso   1.00
C4786  C     0.67635   0.90826   1.04333   0.00000  Uiso   1.00
H4787  H     0.55649   0.97293   1.01045   0.00000  Uiso   1.00
C4788  C     0.72229   0.93857   1.08501   0.00000  Uiso   1.00
N4789  N     0.69395   0.97140   1.17943   0.00000  Uiso   1.00
H4790  H     0.71413   0.87285   1.02258   0.00000  Uiso   1.00
N4791  N     0.55946   0.83213   1.02295   0.00000  Uiso   1.00
H4792  H     0.86971   0.81138   0.99064   0.00000  Uiso   1.00
H4793  H     0.66363   0.80763   0.99704   0.00000  Uiso   1.00
C4794  C     0.62244   0.77668   1.02507   0.00000  Uiso   1.00
H4795  H     0.55990   0.77948   1.05724   0.00000  Uiso   1.00
C4796  C     0.65516   0.88896   1.04108   0.00000  Uiso   1.00
H4797  H     0.59670   0.91805   1.01983   0.00000  Uiso   1.00
C4798  C     0.86306   0.80959   1.15338   0.00000  Uiso   1.00
C4799  C     0.77012   0.76628   1.15589   0.00000  Uiso   1.00
C4800  C     0.64223   0.82651   1.10542   0.00000  Uiso   1.00
N4801  N     0.85303   0.82003   1.05775   0.00000  Uiso   1.00
O4802  O     0.65415   0.84886   1.11784   0.00000  Uiso   1.00
C4803  C     0.78795   0.77710   1.13570   0.00000  Uiso   1.00
C4804  C     0.62731   0.73254   1.07644   0.00000  Uiso   1.00
C4805  C     0.59045   0.86965   1.07509   0.00000  Uiso   1.00
C4806  C     0.86169   0.78687   1.19718   0.00000  Uiso   1.00
C4807  C     0.61287   0.79061   1.07049   0.00000  Uiso   1.00
N4808  N     0.70188   0.89223   1.14122   0.00000  Uiso   1.00
C4809  C     0.68042   0.88525   1.14839   0.00000  Uiso   1.00
C4810  C     0.64027   0.85736   1.14249   0.00000  Uiso   1.00
C4811  C     0.56628   0.85484   1.06990   0.00000  Uiso   1.00
H4812  H     0.57918   0.79344   1.09996   0.00000  Uiso   1.00
C4813  C     0.67675   0.92626   1.06543   0.00000  Uiso   1.00
C4814  C     0.81276   0.79061   1.14215   0.00000  Uiso   1.00
C4815  C     0.82159   0.79992   1.09466   0.00000  Uiso   1.00
H4816  H     0.72781   0.88885   1.05428   0.00000  Uiso   1.00
H4817  H     0.67640   0.82195   1.03148   0.00000  Uiso   1.00
C4818  C     0.65366   0.87691   1.15734   0.00000  Uiso   1.00
H4819  H     0.69304   0.77627   1.02901   0.00000  Uiso   1.00
C4820  C     0.70101   0.94589   1.06413   0.00000  Uiso   1.00
C4821  C     0.78317   0.75295   1.05632   0.00000  Uiso   1.00
C4822  C     0.65013   0.78649   1.03602   0.00000  Uiso   1.00
H4823  H     0.64341   0.74551   1.08390   0.00000  Uiso   1.00
C4824  C     0.69697   0.91512   0.99469   0.00000  Uiso   1.00
C4825  C     0.72268   0.89236   1.03197   0.00000  Uiso   1.00
C4826  C     0.61524   0.81661   1.11312   0.00000  Uiso   1.00
C4827  C     0.84716   0.80835   0.98338   0.00000  Uiso   1.00
C4828  C     0.82799   0.80394   1.12236   0.00000  Uiso   1.00
H4829  H     0.60832   0.96824   1.01583   0.00000  Uiso   1.00
H4830  H     0.80710   0.74511   1.02026   0.00000  Uiso   1.00
O4831  O     0.60051   0.82676   1.13593   0.00000  Uiso   1.00
C4832  C     0.59114   0.88803   1.09846   0.00000  Uiso   1.00
H4833  H     0.62569   0.76114   1.00819   0.00000  Uiso   1.00
C4834  C     0.70904   0.94259   1.03402   0.00000  Uiso   1.00
H4835  H     0.71432   0.92310   0.98220   0.00000  Uiso   1.00
C4836  C     0.60611   0.74160   1.05959   0.00000  Uiso   1.00
C4837  C     0.56268   0.84269   1.04409   0.00000  Uiso   1.00
C4838  C     0.73618   0.96356   1.09643   0.00000  Uiso   1.00
C4839  C     0.65893   0.81314   1.01999   0.00000  Uiso   1.00
H4840  H     0.67686   0.75497   1.05507   0.00000  Uiso   1.00
C4841  C     0.61415   0.84747   1.14993   0.00000  Uiso   1.00
C4842  C     0.63325   0.90701   1.08087   0.00000  Uiso   1.00
O4843  O     0.85293   0.81722   1.12824   0.00000  Uiso   1.00
C4844  C     0.60139   0.77108   1.04913   0.00000  Uiso   1.00
H4845  H     0.65634   0.87382   1.02445   0.00000  Uiso   1.00
O4846  O     0.75781   0.75680   1.10097   0.00000  Uiso   1.00
H4847  H     0.58624   0.73499   0.99726   0.00000  Uiso   1.00
H4848  H     0.83313   0.82129   0.99491   0.00000  Uiso   1.00
H4849  H     0.84064   0.78768   0.99255   0.00000  Uiso   1.00
C4850  C     0.57195   0.77058   1.03991   0.00000  Uiso   1.00
H4851  H     0.74206   0.89487   1.01891   0.00000  Uiso   1.00
H4852  H     0.64230   0.82902   1.02072   0.00000  Uiso   1.00
C4853  C     0.57473   0.91429   1.01503   0.00000  Uiso   1.00
C4854  C     0.78163   0.77377   1.10767   0.00000  Uiso   1.00
O4855  O     0.79584   0.77800   1.05983   0.00000  Uiso   1.00
C4856  C     0.76357   0.74305   1.07587   0.00000  Uiso   1.00
O4857  O     0.61306   0.86738   1.05754   0.00000  Uiso   1.00
C4858  C     0.79875   0.78484   1.08719   0.00000  Uiso   1.00
C4859  C     0.65495   0.92632   1.08466   0.00000  Uiso   1.00
H4860  H     0.73823   0.92367   1.07711   0.00000  Uiso   1.00
C4861  C     0.83921   0.81078   1.07407   0.00000  Uiso   1.00
H4862  H     0.56965   0.78336   1.02094   0.00000  Uiso   1.00
H4863  H     0.61375   0.79385   1.01207   0.00000  Uiso   1.00
H4864  H     0.69383   0.89390   0.98616   0.00000  Uiso   1.00
O4865  O     0.65554   0.90801   1.19578   0.00000  Uiso   1.00
C4866  C     0.79256   0.73630   1.03515   0.00000  Uiso   1.00
O4867  O     0.82068   0.78787   1.17018   0.00000  Uiso   1.00
H4868  H     0.65414   0.93725   1.10421   0.00000  Uiso   1.00
C4869  C     0.56354   0.74020   1.03532   0.00000  Uiso   1.00
C4870  C     0.64186   0.88720   1.18084   0.00000  Uiso   1.00
H4871  H     0.71265   0.92591   1.10098   0.00000  Uiso   1.00
C4872  C     0.67411   0.76507   1.03460   0.00000  Uiso   1.00
H4873  H     0.67874   0.92772   0.99123   0.00000  Uiso   1.00
H4874  H     0.69955   0.95873   1.01979   0.00000  Uiso   1.00
N4875  N     0.59187   0.96824   1.10998   0.00000  Uiso   1.00
C4876  C     0.74162   0.96483   1.12716   0.00000  Uiso   1.00
C4877  C     0.56926   0.88586   1.11734   0.00000  Uiso   1.00
C4878  C     0.76374   0.96631   1.08177   0.00000  Uiso   1.00
C4879  C     0.57574   0.84595   1.17858   0.00000  Uiso   1.00
H4880  H     0.85033   0.77270   1.21097   0.00000  Uiso   1.00
H4881  H     0.87184   0.93101   1.09483   0.00000  Uiso   1.00
H4882  H     0.86840   0.88004   1.10873   0.00000  Uiso   1.00
O4883  O     0.60109   0.88608   1.21165   0.00000  Uiso   1.00
H4884  H     0.57990   0.72857   1.17231   0.00000  Uiso   1.00
C4885  C     0.56885   0.90378   0.98885   0.00000  Uiso   1.00
C4886  C     0.58527   0.72511   1.04992   0.00000  Uiso   1.00
C4887  C     0.57012   0.95960   1.10673   0.00000  Uiso   1.00
H4888  H     0.77780   0.95128   1.09212   0.00000  Uiso   1.00
C4889  C     0.88528   0.96624   1.17971   0.00000  Uiso   1.00
O4890  O     0.88338   0.95309   1.20440   0.00000  Uiso   1.00
H4891  H     0.59797   0.85714   0.98189   0.00000  Uiso   1.00
H4892  H     0.72436   0.95654   1.13924   0.00000  Uiso   1.00
H4893  H     0.87890   0.90362   1.13662   0.00000  Uiso   1.00
C4894  C     0.64252   0.91464   1.22204   0.00000  Uiso   1.00
H4895  H     0.76214   0.96108   1.05912   0.00000  Uiso   1.00
C4896  C     0.60804   0.87615   0.97366   0.00000  Uiso   1.00
C4897  C     0.88951   0.78942   1.19983   0.00000  Uiso   1.00
H4898  H     0.59811   1.01059   0.24161   0.00000  Uiso   1.00
C4899  C     0.59032   0.99589   0.40896   0.00000  Uiso   1.00
C4900  C     0.76340   1.18113   0.37641   0.00000  Uiso   1.00
H4901  H     0.63515   1.08489   0.36139   0.00000  Uiso   1.00
C4902  C     0.84837   0.99689   0.40170   0.00000  Uiso   1.00
H4903  H     0.67122   1.09492   0.24744   0.00000  Uiso   1.00
C4904  C     0.59041   1.03161   0.23939   0.00000  Uiso   1.00
C4905  C     0.59875   1.09739   0.25632   0.00000  Uiso   1.00
H4906  H     0.77618   1.14576   0.35568   0.00000  Uiso   1.00
C4907  C     0.72998   1.06622   0.24443   0.00000  Uiso   1.00
C4908  C     0.60114   1.08157   0.23257   0.00000  Uiso   1.00
C4909  C     0.85033   1.10116   0.36830   0.00000  Uiso   1.00
O4910  O     0.64500   1.01473   0.35799   0.00000  Uiso   1.00
C4911  C     0.79969   1.09051   0.41319   0.00000  Uiso   1.00
H4912  H     0.68400   1.04167   0.32901   0.00000  Uiso   1.00
H4913  H     0.71218   1.17401   0.46029   0.00000  Uiso   1.00
O4914  O     0.64110   1.17487   0.42719   0.00000  Uiso   1.00
C4915  C     0.72205   1.20879   0.27107   0.00000  Uiso   1.00
H4916  H     0.65192   1.16010   0.32432   0.00000  Uiso   1.00
C4917  C     0.80671   1.13981   0.42064   0.00000  Uiso   1.00
C4918  C     0.68316   1.13488   0.26713   0.00000  Uiso   1.00
H4919  H     0.73679   1.11364   0.34875   0.00000  Uiso   1.00
C4920  C     0.62176   1.11047   0.32573   0.00000  Uiso   1.00
F4921  F     0.71263   1.02793   0.41439   0.00000  Uiso   1.00
H4922  H     0.83744   1.10845   0.45466   0.00000  Uiso   1.00
C4923  C     0.74389   1.02669   0.32286   0.00000  Uiso   1.00
C4924  C     0.84528   1.00301   0.34725   0.00000  Uiso   1.00
C4925  C     0.75178   1.18707   0.34667   0.00000  Uiso   1.00
N4926  N     0.67774   1.19436   0.37488   0.00000  Uiso   1.00
C4927  C     0.56834   1.19042   0.34370   0.00000  Uiso   1.00
H4928  H     0.60300   1.07103   0.32106   0.00000  Uiso   1.00
H4929  H     0.59503   1.12499   0.35915   0.00000  Uiso   1.00
H4930  H     0.86154   1.12377   0.43043   0.00000  Uiso   1.00
C4931  C     0.65750   1.20268   0.38424   0.00000  Uiso   1.00
C4932  C     0.61902   1.08638   0.27935   0.00000  Uiso   1.00
H4933  H     0.61595   1.15042   0.34893   0.00000  Uiso   1.00
C4934  C     0.84740   1.03765   0.25025   0.00000  Uiso   1.00
N4935  N     0.83943   1.06066   0.25089   0.00000  Uiso   1.00
H4936  H     0.76219   1.13792   0.39037   0.00000  Uiso   1.00
H4937  H     0.64874   1.05556   0.27066   0.00000  Uiso   1.00
O4938  O     0.68678   1.17979   0.28875   0.00000  Uiso   1.00
C4939  C     0.71424   1.07335   0.43375   0.00000  Uiso   1.00
H4940  H     0.66287   1.08207   0.46685   0.00000  Uiso   1.00
N4941  N     0.59019   1.19839   0.35038   0.00000  Uiso   1.00
C4942  C     0.77943   1.08851   0.31731   0.00000  Uiso   1.00
H4943  H     0.78628   1.13386   0.42846   0.00000  Uiso   1.00
C4944  C     0.67139   1.00598   0.35332   0.00000  Uiso   1.00
H4945  H     0.81589   1.19837   0.46285   0.00000  Uiso   1.00
C4946  C     0.73984   1.03752   0.29341   0.00000  Uiso   1.00
C4947  C     0.65511   1.14772   0.30567   0.00000  Uiso   1.00
O4948  O     0.70730   1.13790   0.25195   0.00000  Uiso   1.00
H4949  H     0.84653   1.02522   0.35006   0.00000  Uiso   1.00
C4950  C     0.72481   0.98718   0.34407   0.00000  Uiso   1.00
C4951  C     0.82883   1.02072   0.40939   0.00000  Uiso   1.00
H4952  H     0.82838   1.02709   0.43095   0.00000  Uiso   1.00
H4953  H     0.64012   0.98230   0.29578   0.00000  Uiso   1.00
C4954  C     0.84603   0.98798   0.37040   0.00000  Uiso   1.00
H4955  H     0.74333   1.10225   0.26641   0.00000  Uiso   1.00
C4956  C     0.73722   1.08028   0.26826   0.00000  Uiso   1.00
C4957  C     0.71803   1.01315   0.33489   0.00000  Uiso   1.00
H4958  H     0.65932   1.08300   0.33338   0.00000  Uiso   1.00
O4959  O     0.85454   1.14180   0.30342   0.00000  Uiso   1.00
H4960  H     0.67568   0.98217   0.30370   0.00000  Uiso   1.00
C4961  C     0.72954   1.10192   0.32926   0.00000  Uiso   1.00
C4962  C     0.75032   1.07804   0.32055   0.00000  Uiso   1.00
O4963  O     0.84666   1.00888   0.29846   0.00000  Uiso   1.00
H4964  H     0.78563   1.01123   0.32980   0.00000  Uiso   1.00
H4965  H     0.57537   1.03481   0.25674   0.00000  Uiso   1.00
C4966  C     0.77484   1.15249   0.37830   0.00000  Uiso   1.00
C4967  C     0.63335   1.21189   0.39615   0.00000  Uiso   1.00
C4968  C     0.62561   1.05688   0.26958   0.00000  Uiso   1.00
C4969  C     0.74429   1.21517   0.25458   0.00000  Uiso   1.00
H4970  H     0.74685   1.18119   0.41986   0.00000  Uiso   1.00
C4971  C     0.61678   1.06110   0.43879   0.00000  Uiso   1.00
C4972  C     0.72298   1.04607   0.43316   0.00000  Uiso   1.00
C4973  C     0.74165   1.06604   0.29229   0.00000  Uiso   1.00
C4974  C     0.88170   1.13248   0.26277   0.00000  Uiso   1.00
C4975  C     0.62468   1.15669   0.44397   0.00000  Uiso   1.00
N4976  N     0.67356   1.08597   0.40282   0.00000  Uiso   1.00
C4977  C     0.83404   1.11840   0.38514   0.00000  Uiso   1.00
C4978  C     0.66650   1.11096   0.26403   0.00000  Uiso   1.00
H4979  H     0.78958   0.98089   0.37015   0.00000  Uiso   1.00
C4980  C     0.72822   1.03659   0.24487   0.00000  Uiso   1.00
C4981  C     0.60507   1.08973   0.30784   0.00000  Uiso   1.00
C4982  C     0.58315   1.12072   0.25634   0.00000  Uiso   1.00
C4983  C     0.85837   1.10871   0.34172   0.00000  Uiso   1.00
O4984  O     0.56574   1.00680   0.41799   0.00000  Uiso   1.00
C4985  C     0.87180   1.12373   0.28828   0.00000  Uiso   1.00
H4986  H     0.78326   1.09588   0.39938   0.00000  Uiso   1.00
H4987  H     0.72461   1.16891   0.39249   0.00000  Uiso   1.00
H4988  H     0.76772   1.18879   0.33074   0.00000  Uiso   1.00
H4989  H     0.79162   1.08581   0.43242   0.00000  Uiso   1.00
C4990  C     0.73349   1.02286   0.26953   0.00000  Uiso   1.00
C4991  C     0.63989   1.12298   0.30408   0.00000  Uiso   1.00
C4992  C     0.75123   1.05246   0.33946   0.00000  Uiso   1.00
H4993  H     0.73383   0.99957   0.26963   0.00000  Uiso   1.00
C4994  C     0.70953   1.18422   0.27130   0.00000  Uiso   1.00
C4995  C     0.85677   1.00951   0.24994   0.00000  Uiso   1.00
C4996  C     0.76487   1.00473   0.32253   0.00000  Uiso   1.00
H4997  H     0.72948   1.11680   0.31345   0.00000  Uiso   1.00
C4998  C     0.84510   0.99231   0.32181   0.00000  Uiso   1.00
C4999  C     0.64340   1.10632   0.28195   0.00000  Uiso   1.00
C5000  C     0.69206   1.08046   0.41596   0.00000  Uiso   1.00
H5001  H     0.85544   1.08123   0.37651   0.00000  Uiso   1.00
H5002  H     0.87981   1.01441   0.43125   0.00000  Uiso   1.00
H5003  H     0.61661   1.04176   0.28391   0.00000  Uiso   1.00
C5004  C     0.80850   1.18607   0.39466   0.00000  Uiso   1.00
C5005  C     0.60568   1.01021   0.38912   0.00000  Uiso   1.00
H5006  H     0.78827   1.09648   0.33851   0.00000  Uiso   1.00
C5007  C     0.84517   1.10865   0.43438   0.00000  Uiso   1.00
C5008  C     0.58706   1.11854   0.46367   0.00000  Uiso   1.00
H5009  H     0.88620   1.02197   0.39654   0.00000  Uiso   1.00
C5010  C     0.71965   1.16334   0.25477   0.00000  Uiso   1.00
H5011  H     0.80665   1.02073   0.40275   0.00000  Uiso   1.00
H5012  H     0.84993   1.18796   0.40995   0.00000  Uiso   1.00
C5013  C     0.59340   1.03485   0.37928   0.00000  Uiso   1.00
C5014  C     0.69080   1.02273   0.33859   0.00000  Uiso   1.00
C5015  C     0.68038   0.98025   0.36400   0.00000  Uiso   1.00
H5016  H     0.59484   1.06074   0.42975   0.00000  Uiso   1.00
H5017  H     0.82397   1.17209   0.34027   0.00000  Uiso   1.00
C5018  C     0.64088   0.97496   0.38999   0.00000  Uiso   1.00
H5019  H     0.73911   1.20598   0.34716   0.00000  Uiso   1.00
C5020  C     0.78562   1.19988   0.38364   0.00000  Uiso   1.00
C5021  C     0.56994   1.13071   0.23303   0.00000  Uiso   1.00
H5022  H     0.70943   1.09232   0.33332   0.00000  Uiso   1.00
N5023  N     0.58236   1.05468   0.37129   0.00000  Uiso   1.00
C5024  C     0.63107   1.12920   0.44380   0.00000  Uiso   1.00
H5025  H     0.58082   1.13503   0.27367   0.00000  Uiso   1.00
H5026  H     0.78076   1.10707   0.30390   0.00000  Uiso   1.00
C5027  C     0.64444   1.09713   0.34493   0.00000  Uiso   1.00
H5028  H     0.58439   1.09966   0.30699   0.00000  Uiso   1.00
C5029  C     0.63070   1.00000   0.37896   0.00000  Uiso   1.00
H5030  H     0.77088   1.05136   0.35101   0.00000  Uiso   1.00
H5031  H     0.85429   1.08794   0.43038   0.00000  Uiso   1.00
H5032  H     0.81999   1.15229   0.43609   0.00000  Uiso   1.00
H5033  H     0.73200   1.20490   0.39483   0.00000  Uiso   1.00
C5034  C     0.82205   1.11328   0.41302   0.00000  Uiso   1.00
F5035  F     0.75851   1.01114   0.44419   0.00000  Uiso   1.00
H5036  H     0.66408   0.97977   0.27030   0.00000  Uiso   1.00
C5037  C     0.82940   1.15054   0.34624   0.00000  Uiso   1.00
C5038  C     0.74100   1.18443   0.39777   0.00000  Uiso   1.00
C5039  C     0.82449   1.14309   0.37331   0.00000  Uiso   1.00
H5040  H     0.76753   0.99742   0.30178   0.00000  Uiso   1.00
H5041  H     0.79418   1.07307   0.30798   0.00000  Uiso   1.00
H5042  H     0.62158   1.16582   0.22563   0.00000  Uiso   1.00
C5043  C     0.67517   1.15552   0.28717   0.00000  Uiso   1.00
H5044  H     0.88730   1.21054   0.46447   0.00000  Uiso   1.00
H5045  H     0.83650   1.03836   0.39658   0.00000  Uiso   1.00
H5046  H     0.73493   1.05589   0.35707   0.00000  Uiso   1.00
C5047  C     0.84869   1.13428   0.33100   0.00000  Uiso   1.00
C5048  C     0.76057   1.05601   0.46293   0.00000  Uiso   1.00
O5049  O     0.72087   1.11986   0.45144   0.00000  Uiso   1.00
H5050  H     0.80886   1.07123   0.40633   0.00000  Uiso   1.00
C5051  C     0.60249   1.20765   0.43581   0.00000  Uiso   1.00
C5052  C     0.73196   1.16569   0.46696   0.00000  Uiso   1.00
C5053  C     0.62514   1.19807   0.41997   0.00000  Uiso   1.00
C5054  C     0.61265   1.05292   0.23951   0.00000  Uiso   1.00
H5055  H     0.58896   1.14182   0.32752   0.00000  Uiso   1.00
C5056  C     0.76725   0.98604   0.37111   0.00000  Uiso   1.00
C5057  C     0.80409   1.15553   0.39200   0.00000  Uiso   1.00
H5058  H     0.65668   1.11276   0.35452   0.00000  Uiso   1.00
C5059  C     0.74668   1.03758   0.44643   0.00000  Uiso   1.00
C5060  C     0.60479   1.13234   0.34109   0.00000  Uiso   1.00
H5061  H     0.56350   1.08630   0.43107   0.00000  Uiso   1.00
C5062  C     0.83178   1.19913   0.40295   0.00000  Uiso   1.00
C5063  C     0.74158   1.16906   0.23779   0.00000  Uiso   1.00
C5064  C     0.75402   1.19483   0.23652   0.00000  Uiso   1.00
H5065  H     0.64812   1.12227   0.43201   0.00000  Uiso   1.00
C5066  C     0.87080   1.15637   0.25088   0.00000  Uiso   1.00
C5067  C     0.73768   1.13734   0.46574   0.00000  Uiso   1.00
H5068  H     0.63086   1.07170   0.42296   0.00000  Uiso   1.00
H5069  H     0.62498   1.04016   0.44289   0.00000  Uiso   1.00
C5070  C     0.61273   1.11037   0.45663   0.00000  Uiso   1.00
C5071  C     0.60004   1.16559   0.45683   0.00000  Uiso   1.00
H5072  H     0.73686   1.17151   0.34046   0.00000  Uiso   1.00
O5073  O     0.55716   1.15555   0.23530   0.00000  Uiso   1.00
O5074  O     0.59265   1.19403   0.45920   0.00000  Uiso   1.00
C5075  C     0.86698   0.99612   0.22592   0.00000  Uiso   1.00
C5076  C     0.61637   1.07990   0.46389   0.00000  Uiso   1.00
H5077  H     0.76691   1.00757   0.37734   0.00000  Uiso   1.00
O5078  O     0.87457   1.09125   0.32813   0.00000  Uiso   1.00
C5079  C     0.85204   0.99435   0.27352   0.00000  Uiso   1.00
C5080  C     0.72956   1.09223   0.45102   0.00000  Uiso   1.00
C5081  C     0.75248   1.08332   0.46522   0.00000  Uiso   1.00
F5082  F     0.55972   1.17620   0.29156   0.00000  Uiso   1.00
C5083  C     0.87884   1.00527   0.41009   0.00000  Uiso   1.00
H5084  H     0.87911   1.18123   0.44346   0.00000  Uiso   1.00
N5085  N     0.86180   1.17691   0.24226   0.00000  Uiso   1.00
C5086  C     0.58131   1.14638   0.46669   0.00000  Uiso   1.00
C5087  C     0.75500   0.98128   0.34039   0.00000  Uiso   1.00
C5088  C     0.88186   1.09946   0.30087   0.00000  Uiso   1.00
O5089  O     0.55687   0.99122   0.32577   0.00000  Uiso   1.00
H5090  H     0.65233   1.06168   0.22359   0.00000  Uiso   1.00
H5091  H     0.64533   1.02548   0.22364   0.00000  Uiso   1.00
H5092  H     0.82742   1.11641   0.65306   0.00000  Uiso   1.00
H5093  H     0.73172   1.07889   0.55025   0.00000  Uiso   1.00
H5094  H     0.81085   1.17485   0.53472   0.00000  Uiso   1.00
O5095  O     0.75912   1.04040   0.65097   0.00000  Uiso   1.00
H5096  H     0.83403   0.97916   0.49834   0.00000  Uiso   1.00
C5097  C     0.59073   0.98717   0.58716   0.00000  Uiso   1.00
H5098  H     0.62544   1.01252   0.61349   0.00000  Uiso   1.00
H5099  H     0.79877   1.13808   0.50308   0.00000  Uiso   1.00
H5100  H     0.60913   1.12052   0.66699   0.00000  Uiso   1.00
C5101  C     0.77388   1.17509   0.49081   0.00000  Uiso   1.00
C5102  C     0.86310   0.99258   0.66876   0.00000  Uiso   1.00
C5103  C     0.73450   1.11817   0.61979   0.00000  Uiso   1.00
H5104  H     0.77368   1.07588   0.55361   0.00000  Uiso   1.00
H5105  H     0.64512   1.21293   0.65595   0.00000  Uiso   1.00
C5106  C     0.76189   1.12736   0.47997   0.00000  Uiso   1.00
C5107  C     0.59855   1.12287   0.68715   0.00000  Uiso   1.00
C5108  C     0.62634   1.02217   0.59194   0.00000  Uiso   1.00
H5109  H     0.64853   0.98184   0.52359   0.00000  Uiso   1.00
H5110  H     0.75694   1.19702   0.57735   0.00000  Uiso   1.00
H5111  H     0.77714   1.16692   0.62017   0.00000  Uiso   1.00
H5112  H     0.58982   1.10070   0.61511   0.00000  Uiso   1.00
H5113  H     0.65353   1.15895   0.63331   0.00000  Uiso   1.00
C5114  C     0.79765   1.19344   0.53238   0.00000  Uiso   1.00
O5115  O     0.86534   1.02732   0.60124   0.00000  Uiso   1.00
H5116  H     0.77862   1.21556   0.60004   0.00000  Uiso   1.00
C5117  C     0.80156   1.17783   0.70232   0.00000  Uiso   1.00
H5118  H     0.82711   0.98685   0.56877   0.00000  Uiso   1.00
H5119  H     0.66166   1.06299   0.61927   0.00000  Uiso   1.00
C5120  C     0.87585   1.04412   0.55778   0.00000  Uiso   1.00
N5121  N     0.56727   1.17632   0.60568   0.00000  Uiso   1.00
C5122  C     0.66384   1.17318   0.58412   0.00000  Uiso   1.00
H5123  H     0.77947   1.04054   0.65238   0.00000  Uiso   1.00
C5124  C     0.74166   1.19624   0.61872   0.00000  Uiso   1.00
H5125  H     0.68707   1.18477   0.66741   0.00000  Uiso   1.00
C5126  C     0.64314   0.99020   0.67006   0.00000  Uiso   1.00
C5127  C     0.72558   1.09922   0.55465   0.00000  Uiso   1.00
N5128  N     0.75003   1.12917   0.71149   0.00000  Uiso   1.00
H5129  H     0.58232   0.99387   0.66653   0.00000  Uiso   1.00
C5130  C     0.83958   1.10858   0.59574   0.00000  Uiso   1.00
C5131  C     0.83374   1.15797   0.67158   0.00000  Uiso   1.00
H5132  H     0.64654   1.01759   0.58217   0.00000  Uiso   1.00
C5133  C     0.58964   1.21875   0.69664   0.00000  Uiso   1.00
H5134  H     0.88836   1.13617   0.56959   0.00000  Uiso   1.00
H5135  H     0.82545   1.12424   0.58936   0.00000  Uiso   1.00
O5136  O     0.64294   1.16528   0.56845   0.00000  Uiso   1.00
H5137  H     0.83630   1.21007   0.49402   0.00000  Uiso   1.00
C5138  C     0.58152   1.03792   0.58119   0.00000  Uiso   1.00
C5139  C     0.75654   1.21060   0.59543   0.00000  Uiso   1.00
H5140  H     0.64559   1.08798   0.49898   0.00000  Uiso   1.00
H5141  H     0.79414   1.09777   0.57183   0.00000  Uiso   1.00
H5142  H     0.66175   1.06724   0.57290   0.00000  Uiso   1.00
C5143  C     0.87246   1.16598   0.63013   0.00000  Uiso   1.00
C5144  C     0.68509   1.15424   0.58886   0.00000  Uiso   1.00
O5145  O     0.64375   1.21985   0.59244   0.00000  Uiso   1.00
H5146  H     0.81025   1.20976   0.54100   0.00000  Uiso   1.00
H5147  H     0.78035   1.18865   0.54458   0.00000  Uiso   1.00
C5148  C     0.85673   1.00856   0.64605   0.00000  Uiso   1.00
C5149  C     0.75243   1.07232   0.61239   0.00000  Uiso   1.00
C5150  C     0.77565   1.09810   0.55834   0.00000  Uiso   1.00
C5151  C     0.72870   1.11118   0.64673   0.00000  Uiso   1.00
O5152  O     0.81208   1.15391   0.68952   0.00000  Uiso   1.00
C5153  C     0.65354   1.16027   0.68075   0.00000  Uiso   1.00
H5154  H     0.68272   1.13216   0.57944   0.00000  Uiso   1.00
C5155  C     0.61544   1.07404   0.69285   0.00000  Uiso   1.00
C5156  C     0.63913   1.07027   0.57011   0.00000  Uiso   1.00
C5157  C     0.83965   1.13636   0.65289   0.00000  Uiso   1.00
C5158  C     0.61045   0.97682   0.54341   0.00000  Uiso   1.00
C5159  C     0.62179   1.21086   0.57598   0.00000  Uiso   1.00
H5160  H     0.67924   1.19511   0.52794   0.00000  Uiso   1.00
C5161  C     0.60305   1.15071   0.53314   0.00000  Uiso   1.00
C5162  C     0.68950   1.20926   0.60696   0.00000  Uiso   1.00
C5163  C     0.62203   1.18547   0.56317   0.00000  Uiso   1.00
H5164  H     0.65568   1.12150   0.70731   0.00000  Uiso   1.00
H5165  H     0.78154   1.10790   0.53781   0.00000  Uiso   1.00
C5166  C     0.62619   1.05426   0.59443   0.00000  Uiso   1.00
H5167  H     0.73533   1.10067   0.69375   0.00000  Uiso   1.00
H5168  H     0.63405   1.09235   0.57423   0.00000  Uiso   1.00
C5169  C     0.85754   1.14124   0.63142   0.00000  Uiso   1.00
C5170  C     0.75376   1.16792   0.62303   0.00000  Uiso   1.00
C5171  C     0.74856   1.18369   0.48130   0.00000  Uiso   1.00
C5172  C     0.73746   1.14640   0.60712   0.00000  Uiso   1.00
H5173  H     0.66485   0.98137   0.66400   0.00000  Uiso   1.00
H5174  H     0.85765   1.15501   0.57720   0.00000  Uiso   1.00
H5175  H     0.84397   1.09656   0.57729   0.00000  Uiso   1.00
C5176  C     0.60869   1.17336   0.70171   0.00000  Uiso   1.00
C5177  C     0.64511   1.14207   0.70539   0.00000  Uiso   1.00
H5178  H     0.72005   1.12707   0.66001   0.00000  Uiso   1.00
O5179  O     0.73231   1.08228   0.68537   0.00000  Uiso   1.00
H5180  H     0.56691   0.99877   0.62351   0.00000  Uiso   1.00
C5181  C     0.66495   1.20072   0.59474   0.00000  Uiso   1.00
H5182  H     0.57843   1.13202   0.68282   0.00000  Uiso   1.00
C5183  C     0.85543   0.98128   0.71531   0.00000  Uiso   1.00
H5184  H     0.72681   1.19527   0.52602   0.00000  Uiso   1.00
C5185  C     0.63056   1.18172   0.68423   0.00000  Uiso   1.00
H5186  H     0.85609   1.05538   0.55796   0.00000  Uiso   1.00
C5187  C     0.58945   1.19251   0.70872   0.00000  Uiso   1.00
H5188  H     0.83138   1.09491   0.61027   0.00000  Uiso   1.00
C5189  C     0.58036   0.99879   0.68801   0.00000  Uiso   1.00
H5190  H     0.55755   1.08075   0.67577   0.00000  Uiso   1.00
C5191  C     0.59343   1.07456   0.48394   0.00000  Uiso   1.00
H5192  H     0.70520   1.09899   0.56519   0.00000  Uiso   1.00
H5193  H     0.87097   1.08257   0.47389   0.00000  Uiso   1.00
H5194  H     0.64091   1.13085   0.64888   0.00000  Uiso   1.00
H5195  H     0.63289   1.08425   0.62878   0.00000  Uiso   1.00
C5196  C     0.87305   1.00983   0.62289   0.00000  Uiso   1.00
H5197  H     0.74329   1.15367   0.56253   0.00000  Uiso   1.00
C5198  C     0.74915   1.10930   0.57311   0.00000  Uiso   1.00
C5199  C     0.84573   0.98168   0.51745   0.00000  Uiso   1.00
C5200  C     0.75172   1.14012   0.57932   0.00000  Uiso   1.00
C5201  C     0.81761   1.19584   0.48636   0.00000  Uiso   1.00
C5202  C     0.74586   1.09794   0.60198   0.00000  Uiso   1.00
C5203  C     0.64015   1.06368   0.62103   0.00000  Uiso   1.00
C5204  C     0.79120   1.19716   0.50272   0.00000  Uiso   1.00
H5205  H     0.62064   1.01969   0.53483   0.00000  Uiso   1.00
H5206  H     0.72318   1.11223   0.53545   0.00000  Uiso   1.00
C5207  C     0.60181   1.17600   0.54570   0.00000  Uiso   1.00
C5208  C     0.64440   1.07657   0.47924   0.00000  Uiso   1.00
H5209  H     0.83605   1.00119   0.52616   0.00000  Uiso   1.00
C5210  C     0.56324   1.08649   0.69792   0.00000  Uiso   1.00
C5211  C     0.83156   1.02392   0.64649   0.00000  Uiso   1.00
H5212  H     0.63840   1.08077   0.69754   0.00000  Uiso   1.00
C5213  C     0.74650   1.21351   0.64524   0.00000  Uiso   1.00
C5214  C     0.59443   1.06015   0.59410   0.00000  Uiso   1.00
H5215  H     0.63076   0.98735   0.65128   0.00000  Uiso   1.00
C5216  C     0.77556   1.17511   0.71474   0.00000  Uiso   1.00
H5217  H     0.77457   1.14283   0.58218   0.00000  Uiso   1.00
C5218  C     0.73780   1.08612   0.65793   0.00000  Uiso   1.00
H5219  H     0.58359   1.01149   0.53681   0.00000  Uiso   1.00
C5220  C     0.62923   1.20663   0.67055   0.00000  Uiso   1.00
H5221  H     0.64767   1.01165   0.67396   0.00000  Uiso   1.00
C5222  C     0.87599   1.14363   0.58667   0.00000  Uiso   1.00
O5223  O     0.84604   0.99490   0.69147   0.00000  Uiso   1.00
C5224  C     0.65514   1.14672   0.65169   0.00000  Uiso   1.00
H5225  H     0.86613   1.04677   0.48159   0.00000  Uiso   1.00
C5226  C     0.86412   1.20944   0.58550   0.00000  Uiso   1.00
H5227  H     0.68431   1.18457   0.70331   0.00000  Uiso   1.00
C5228  C     0.77854   1.14757   0.49267   0.00000  Uiso   1.00
C5229  C     0.58012   1.19380   0.53795   0.00000  Uiso   1.00
H5230  H     0.63506   1.06107   0.55004   0.00000  Uiso   1.00
H5231  H     0.69919   1.15611   0.68791   0.00000  Uiso   1.00
H5232  H     0.84454   1.20353   0.59837   0.00000  Uiso   1.00
C5233  C     0.71076   1.18975   0.61181   0.00000  Uiso   1.00
O5234  O     0.76856   1.09964   0.48120   0.00000  Uiso   1.00
H5235  H     0.87134   1.10545   0.52834   0.00000  Uiso   1.00
N5236  N     0.81100   1.03712   0.64679   0.00000  Uiso   1.00
C5237  C     0.86429   1.12266   0.60748   0.00000  Uiso   1.00
H5238  H     0.82693   1.17503   0.48791   0.00000  Uiso   1.00
H5239  H     0.61274   1.05316   0.70201   0.00000  Uiso   1.00
C5240  C     0.70880   1.16195   0.60359   0.00000  Uiso   1.00
C5241  C     0.57009   1.09453   0.47498   0.00000  Uiso   1.00
H5242  H     0.86929   1.08430   0.62501   0.00000  Uiso   1.00
H5243  H     0.74133   1.20132   0.66375   0.00000  Uiso   1.00
N5244  N     0.60602   1.12976   0.52149   0.00000  Uiso   1.00
H5245  H     0.59936   1.07830   0.50582   0.00000  Uiso   1.00
O5246  O     0.55966   1.18440   0.51814   0.00000  Uiso   1.00
C5247  C     0.60389   1.00705   0.54615   0.00000  Uiso   1.00
C5248  C     0.84783   1.18294   0.66946   0.00000  Uiso   1.00
H5249  H     0.63565   1.04818   0.63769   0.00000  Uiso   1.00
H5250  H     0.68480   1.19266   0.49127   0.00000  Uiso   1.00
C5251  C     0.75076   1.06638   0.64089   0.00000  Uiso   1.00
C5252  C     0.59340   1.09494   0.70212   0.00000  Uiso   1.00
H5253  H     0.84803   1.07231   0.50045   0.00000  Uiso   1.00
C5254  C     0.60091   1.01419   0.57598   0.00000  Uiso   1.00
C5255  C     0.67803   1.20571   0.50847   0.00000  Uiso   1.00
C5256  C     0.57991   1.08188   0.60630   0.00000  Uiso   1.00
C5257  C     0.86784   1.18704   0.64948   0.00000  Uiso   1.00
H5258  H     0.67332   1.13323   0.65055   0.00000  Uiso   1.00
C5259  C     0.88272   1.02631   0.57945   0.00000  Uiso   1.00
H5260  H     0.75180   1.16277   0.64441   0.00000  Uiso   1.00
H5261  H     0.75949   1.05512   0.59808   0.00000  Uiso   1.00
C5262  C     0.76115   1.15023   0.71371   0.00000  Uiso   1.00
C5263  C     0.57636   0.98139   0.61139   0.00000  Uiso   1.00
H5264  H     0.61037   1.07009   0.66953   0.00000  Uiso   1.00
C5265  C     0.74424   1.21466   0.49002   0.00000  Uiso   1.00
H5266  H     0.86805   0.98545   0.51372   0.00000  Uiso   1.00
C5267  C     0.68240   1.17172   0.68550   0.00000  Uiso   1.00
O5268  O     0.83882   1.20538   0.68651   0.00000  Uiso   1.00
C5269  C     0.61386   1.14259   0.70903   0.00000  Uiso   1.00
C5270  C     0.81365   1.20381   0.69819   0.00000  Uiso   1.00
C5271  C     0.63083   0.97517   0.69469   0.00000  Uiso   1.00
H5272  H     0.56210   1.15391   0.47528   0.00000  Uiso   1.00
C5273  C     0.86872   1.06684   0.49114   0.00000  Uiso   1.00
C5274  C     0.60455   0.99128   0.70228   0.00000  Uiso   1.00
N5275  N     0.80514   1.04377   0.48770   0.00000  Uiso   1.00
H5276  H     0.58689   1.05402   0.48458   0.00000  Uiso   1.00
H5277  H     0.64796   1.05473   0.48566   0.00000  Uiso   1.00
C5278  C     0.57779   1.21920   0.55296   0.00000  Uiso   1.00
H5279  H     0.56547   1.10602   0.53277   0.00000  Uiso   1.00
H5280  H     0.66313   0.99556   0.71496   0.00000  Uiso   1.00
C5281  C     0.78505   1.04867   0.47672   0.00000  Uiso   1.00
H5282  H     0.88091   1.20514   0.65133   0.00000  Uiso   1.00
C5283  C     0.72897   1.21595   0.51713   0.00000  Uiso   1.00
C5284  C     0.55794   1.01116   0.70156   0.00000  Uiso   1.00
C5285  C     0.65092   0.97710   0.71909   0.00000  Uiso   1.00
C5286  C     0.88665   1.19170   0.58710   0.00000  Uiso   1.00
C5287  C     0.88286   1.09753   0.61368   0.00000  Uiso   1.00
H5288  H     0.76737   1.22195   0.64778   0.00000  Uiso   1.00
H5289  H     0.55766   1.06773   0.71051   0.00000  Uiso   1.00
C5290  C     0.88614   0.97653   0.66841   0.00000  Uiso   1.00
H5291  H     0.58093   0.97535   0.50893   0.00000  Uiso   1.00
H5292  H     0.65674   1.21015   0.50232   0.00000  Uiso   1.00
C5293  C     0.77428   1.22243   0.49365   0.00000  Uiso   1.00
H5294  H     0.65286   0.97790   0.55974   0.00000  Uiso   1.00
C5295  C     0.88927   1.16600   0.60313   0.00000  Uiso   1.00
C5296  C     0.67890   1.12254   0.83954   0.00000  Uiso   1.00
C5297  C     0.66827   1.20016   0.89988   0.00000  Uiso   1.00
C5298  C     0.69054   1.20656   0.94459   0.00000  Uiso   1.00
C5299  C     0.67319   1.10980   0.81441   0.00000  Uiso   1.00
C5300  C     0.68545   1.07877   0.86008   0.00000  Uiso   1.00
C5301  C     0.85755   1.00305   0.79097   0.00000  Uiso   1.00
O5302  O     0.67298   1.15105   0.84250   0.00000  Uiso   1.00
C5303  C     0.66963   1.12719   0.79182   0.00000  Uiso   1.00
N5304  N     0.66937   1.14129   0.77232   0.00000  Uiso   1.00
H5305  H     0.56892   1.21260   0.88395   0.00000  Uiso   1.00
O5306  O     0.84184   1.01216   0.91595   0.00000  Uiso   1.00
C5307  C     0.85378   1.06182   0.91528   0.00000  Uiso   1.00
O5308  O     0.57492   1.17752   0.92236   0.00000  Uiso   1.00
H5309  H     0.65814   1.16051   0.95891   0.00000  Uiso   1.00
C5310  C     0.68485   1.10706   0.86323   0.00000  Uiso   1.00
C5311  C     0.59635   1.09369   0.78149   0.00000  Uiso   1.00
C5312  C     0.88656   1.12851   0.89493   0.00000  Uiso   1.00
C5313  C     0.56098   1.20219   0.92644   0.00000  Uiso   1.00
C5314  C     0.66034   1.04284   0.78618   0.00000  Uiso   1.00
C5315  C     0.84451   0.99042   0.74043   0.00000  Uiso   1.00
C5316  C     0.65228   1.22123   0.80493   0.00000  Uiso   1.00
O5317  O     0.59212   1.07334   0.80096   0.00000  Uiso   1.00
H5318  H     0.59109   1.06172   0.75006   0.00000  Uiso   1.00
C5319  C     0.85748   1.08083   0.78231   0.00000  Uiso   1.00
H5320  H     0.81423   1.00946   0.78550   0.00000  Uiso   1.00
C5321  C     0.65926   0.99929   0.81004   0.00000  Uiso   1.00
C5322  C     0.72827   1.00872   0.93369   0.00000  Uiso   1.00
C5323  C     0.66343   1.18812   0.87413   0.00000  Uiso   1.00
C5324  C     0.87192   1.08378   0.91087   0.00000  Uiso   1.00
C5325  C     0.60567   0.99731   0.72978   0.00000  Uiso   1.00
C5326  C     0.59456   1.08431   0.75416   0.00000  Uiso   1.00
H5327  H     0.79408   1.06389   0.79229   0.00000  Uiso   1.00
C5328  C     0.56273   1.15475   0.85033   0.00000  Uiso   1.00
H5329  H     0.70212   1.15103   0.93331   0.00000  Uiso   1.00
C5330  C     0.76332   1.04179   0.92145   0.00000  Uiso   1.00
H5331  H     0.86782   0.97943   0.82699   0.00000  Uiso   1.00
C5332  C     0.75813   1.05811   0.94447   0.00000  Uiso   1.00
H5333  H     0.87134   1.14560   0.94700   0.00000  Uiso   1.00
C5334  C     0.87334   1.08572   0.75842   0.00000  Uiso   1.00
H5335  H     0.83213   1.11187   0.88710   0.00000  Uiso   1.00
H5336  H     0.80850   1.07984   0.82188   0.00000  Uiso   1.00
C5337  C     0.66763   1.02689   0.80914   0.00000  Uiso   1.00
H5338  H     0.84857   1.10045   0.79166   0.00000  Uiso   1.00
C5339  C     0.78242   1.05226   0.90096   0.00000  Uiso   1.00
H5340  H     0.82790   1.03593   0.85698   0.00000  Uiso   1.00
C5341  C     0.85379   1.05397   0.79099   0.00000  Uiso   1.00
H5342  H     0.64009   1.04215   0.74410   0.00000  Uiso   1.00
C5343  C     0.69051   1.16027   0.91583   0.00000  Uiso   1.00
C5344  C     0.57565   1.08588   0.82116   0.00000  Uiso   1.00
C5345  C     0.57856   1.11467   0.82864   0.00000  Uiso   1.00
H5346  H     0.82507   1.00212   0.73981   0.00000  Uiso   1.00
C5347  C     0.64668   1.03122   0.76299   0.00000  Uiso   1.00
N5348  N     0.61206   1.11498   0.90577   0.00000  Uiso   1.00
C5349  C     0.58584   1.13460   0.94565   0.00000  Uiso   1.00
O5350  O     0.74202   1.19346   0.74431   0.00000  Uiso   1.00
C5351  C     0.84238   1.04293   0.84166   0.00000  Uiso   1.00
C5352  C     0.86746   1.11432   0.91602   0.00000  Uiso   1.00
C5353  C     0.74963   1.01717   0.91602   0.00000  Uiso   1.00
C5354  C     0.60411   1.12989   0.73643   0.00000  Uiso   1.00
H5355  H     0.84649   1.06318   0.84971   0.00000  Uiso   1.00
C5356  C     0.80417   1.05922   0.81261   0.00000  Uiso   1.00
C5357  C     0.64783   0.98656   0.78751   0.00000  Uiso   1.00
C5358  C     0.76509   1.19821   0.72715   0.00000  Uiso   1.00
H5359  H     0.61816   1.21170   0.91348   0.00000  Uiso   1.00
C5360  C     0.59980   1.12431   0.92394   0.00000  Uiso   1.00
N5361  N     0.69768   1.04906   0.90187   0.00000  Uiso   1.00
H5362  H     0.65187   1.19857   0.85873   0.00000  Uiso   1.00
C5363  C     0.68398   1.18734   0.91964   0.00000  Uiso   1.00
C5364  C     0.68586   1.14645   0.89129   0.00000  Uiso   1.00
H5365  H     0.83410   1.06588   0.92551   0.00000  Uiso   1.00
H5366  H     0.65167   1.15397   0.72435   0.00000  Uiso   1.00
O5367  O     0.75593   1.00097   0.89254   0.00000  Uiso   1.00
O5368  O     0.66603   1.07160   0.78599   0.00000  Uiso   1.00
C5369  C     0.67887   1.06594   0.83552   0.00000  Uiso   1.00
H5370  H     0.79097   1.04796   0.82645   0.00000  Uiso   1.00
C5371  C     0.64236   1.00199   0.76353   0.00000  Uiso   1.00
C5372  C     0.60626   1.13889   0.76402   0.00000  Uiso   1.00
C5373  C     0.85986   1.03416   0.90879   0.00000  Uiso   1.00
C5374  C     0.67413   1.16081   0.86911   0.00000  Uiso   1.00
H5375  H     0.64455   1.20520   0.74579   0.00000  Uiso   1.00
O5376  O     0.69097   1.11949   0.88915   0.00000  Uiso   1.00
C5377  C     0.82904   1.01170   0.80156   0.00000  Uiso   1.00
C5378  C     0.60061   1.12148   0.78575   0.00000  Uiso   1.00
H5379  H     0.69426   1.18969   0.76725   0.00000  Uiso   1.00
C5380  C     0.69224   1.06318   0.88323   0.00000  Uiso   1.00
H5381  H     0.82058   1.11147   0.92292   0.00000  Uiso   1.00
H5382  H     0.61417   1.15880   0.76853   0.00000  Uiso   1.00
C5383  C     0.58266   1.01020   0.74358   0.00000  Uiso   1.00
C5384  C     0.86719   1.03143   0.78017   0.00000  Uiso   1.00
C5385  C     0.59630   1.10263   0.73311   0.00000  Uiso   1.00
O5386  O     0.59778   1.13153   0.81276   0.00000  Uiso   1.00
C5387  C     0.68695   1.18994   0.97073   0.00000  Uiso   1.00
H5388  H     0.85960   1.02839   0.84589   0.00000  Uiso   1.00
C5389  C     0.83127   1.04238   0.81262   0.00000  Uiso   1.00
O5390  O     0.67916   1.03735   0.83394   0.00000  Uiso   1.00
C5391  C     0.67343   1.08223   0.81155   0.00000  Uiso   1.00
C5392  C     0.83604   1.12027   0.90846   0.00000  Uiso   1.00
C5393  C     0.88467   1.06193   0.74513   0.00000  Uiso   1.00
H5394  H     0.85730   1.11445   0.95959   0.00000  Uiso   1.00
H5395  H     0.87334   1.13491   0.87575   0.00000  Uiso   1.00
C5396  C     0.88572   1.03625   0.75868   0.00000  Uiso   1.00
H5397  H     0.58295   1.01101   0.76573   0.00000  Uiso   1.00
C5398  C     0.74516   0.97451   0.89218   0.00000  Uiso   1.00
H5399  H     0.83012   1.14322   0.90637   0.00000  Uiso   1.00
H5400  H     0.65547   1.19792   0.80116   0.00000  Uiso   1.00
N5401  N     0.79727   1.06024   0.88296   0.00000  Uiso   1.00
C5402  C     0.56078   1.12750   0.84565   0.00000  Uiso   1.00
C5403  C     0.87407   1.12358   0.94610   0.00000  Uiso   1.00
H5404  H     0.82151   0.99910   0.81815   0.00000  Uiso   1.00
H5405  H     0.66115   0.98640   0.82944   0.00000  Uiso   1.00
C5406  C     0.87900   0.98935   0.81015   0.00000  Uiso   1.00
O5407  O     0.77359   1.08312   0.94865   0.00000  Uiso   1.00
C5408  C     0.57490   1.16151   0.94585   0.00000  Uiso   1.00
N5409  N     0.56349   1.17775   0.85553   0.00000  Uiso   1.00
O5410  O     0.87146   1.11171   0.74465   0.00000  Uiso   1.00
C5411  C     0.72679   1.21730   0.75116   0.00000  Uiso   1.00
N5412  N     0.88350   1.18245   0.73753   0.00000  Uiso   1.00
C5413  C     0.63138   0.98395   0.74169   0.00000  Uiso   1.00
C5414  C     0.72373   1.02315   0.95832   0.00000  Uiso   1.00
C5415  C     0.70169   1.21320   0.76247   0.00000  Uiso   1.00
C5416  C     0.85824   0.98597   0.76491   0.00000  Uiso   1.00
C5417  C     0.73910   1.04723   0.96437   0.00000  Uiso   1.00
H5418  H     0.64929   1.21715   0.95146   0.00000  Uiso   1.00
O5419  O     0.71482   0.98300   0.93127   0.00000  Uiso   1.00
C5420  C     0.87984   0.98087   0.89996   0.00000  Uiso   1.00
C5421  C     0.58546   1.11876   0.97008   0.00000  Uiso   1.00
O5422  O     0.58989   1.09072   0.96793   0.00000  Uiso   1.00
C5423  C     0.56096   1.21996   0.90350   0.00000  Uiso   1.00
C5424  C     0.85314   0.98374   0.91091   0.00000  Uiso   1.00
H5425  H     0.57294   1.18848   0.72524   0.00000  Uiso   1.00
C5426  C     0.56680   1.17314   0.97147   0.00000  Uiso   1.00
C5427  C     0.55754   1.01485   0.72947   0.00000  Uiso   1.00
H5428  H     0.73094   1.19846   0.93964   0.00000  Uiso   1.00
C5429  C     0.88618   1.02955   0.89606   0.00000  Uiso   1.00
H5430  H     0.81398   1.10853   0.97046   0.00000  Uiso   1.00
C5431  C     0.71894   1.21815   0.94674   0.00000  Uiso   1.00
H5432  H     0.61544   1.21736   0.76599   0.00000  Uiso   1.00
H5433  H     0.85947   1.20190   1.01645   0.00000  Uiso   1.00
C5434  C     0.82456   1.11991   1.03129   0.00000  Uiso   1.00
H5435  H     0.72078   1.19393   1.03196   0.00000  Uiso   1.00
C5436  C     0.71782   0.98663   1.08805   0.00000  Uiso   1.00
C5437  C     0.67749   1.03819   1.16083   0.00000  Uiso   1.00
C5438  C     0.69334   1.10387   1.06620   0.00000  Uiso   1.00
H5439  H     0.56509   1.03148   1.13811   0.00000  Uiso   1.00
H5440  H     0.58548   0.98403   1.06413   0.00000  Uiso   1.00
C5441  C     0.70644   1.18655   1.01625   0.00000  Uiso   1.00
C5442  C     0.70378   1.11704   1.09028   0.00000  Uiso   1.00
H5443  H     0.74346   1.07714   1.03816   0.00000  Uiso   1.00
O5444  O     0.76986   1.17422   1.14866   0.00000  Uiso   1.00
O5445  O     0.66398   1.03663   1.04336   0.00000  Uiso   1.00
C5446  C     0.63703   1.06538   1.13303   0.00000  Uiso   1.00
H5447  H     0.68207   1.18126   1.06646   0.00000  Uiso   1.00
C5448  C     0.59488   1.06059   1.10511   0.00000  Uiso   1.00
C5449  C     0.66652   1.07954   1.02150   0.00000  Uiso   1.00
H5450  H     0.60161   1.20608   1.21107   0.00000  Uiso   1.00
C5451  C     0.56063   1.03720   1.07899   0.00000  Uiso   1.00
C5452  C     0.59184   1.03532   1.01745   0.00000  Uiso   1.00
C5453  C     0.60727   0.98959   1.00516   0.00000  Uiso   1.00
C5454  C     0.80714   1.20544   1.14158   0.00000  Uiso   1.00
C5455  C     0.67173   1.16743   0.97490   0.00000  Uiso   1.00
C5456  C     0.59520   1.00251   1.05381   0.00000  Uiso   1.00
C5457  C     0.64340   1.18224   1.15518   0.00000  Uiso   1.00
C5458  C     0.75841   1.08481   1.02345   0.00000  Uiso   1.00
C5459  C     0.66302   1.20402   1.19647   0.00000  Uiso   1.00
C5460  C     0.70537   1.19879   0.99056   0.00000  Uiso   1.00
O5461  O     0.69582   1.14719   1.04502   0.00000  Uiso   1.00
C5462  C     0.60748   1.03798   1.09180   0.00000  Uiso   1.00
O5463  O     0.86239   1.13806   1.14348   0.00000  Uiso   1.00
C5464  C     0.62837   1.16458   1.13849   0.00000  Uiso   1.00
H5465  H     0.88646   1.04432   1.10725   0.00000  Uiso   1.00
C5466  C     0.68871   1.08044   1.18466   0.00000  Uiso   1.00
C5467  C     0.68076   0.99224   1.05534   0.00000  Uiso   1.00
C5468  C     0.68696   1.12013   1.04418   0.00000  Uiso   1.00
H5469  H     0.71819   1.17376   1.16634   0.00000  Uiso   1.00
N5470  N     0.71170   1.12767   1.10952   0.00000  Uiso   1.00
H5471  H     0.61094   1.15074   1.14689   0.00000  Uiso   1.00
C5472  C     0.63044   1.02517   1.10285   0.00000  Uiso   1.00
C5473  C     0.63671   1.04618   1.22055   0.00000  Uiso   1.00
C5474  C     0.75619   1.07790   0.99593   0.00000  Uiso   1.00
H5475  H     0.66177   1.21991   1.21230   0.00000  Uiso   1.00
O5476  O     0.65226   1.08089   1.15093   0.00000  Uiso   1.00
C5477  C     0.75508   1.21738   0.98511   0.00000  Uiso   1.00
H5478  H     0.55700   1.09821   1.07592   0.00000  Uiso   1.00
C5479  C     0.81768   1.11164   1.06077   0.00000  Uiso   1.00
H5480  H     0.68956   1.20848   1.11053   0.00000  Uiso   1.00
H5481  H     0.62831   0.99609   1.00641   0.00000  Uiso   1.00
C5482  C     0.63408   1.16469   1.10908   0.00000  Uiso   1.00
O5483  O     0.86599   1.00980   1.20053   0.00000  Uiso   1.00
H5484  H     0.74802   0.98488   1.13530   0.00000  Uiso   1.00
N5485  N     0.68591   1.13320   1.18701   0.00000  Uiso   1.00
C5486  C     0.70551   1.01333   0.97709   0.00000  Uiso   1.00
H5487  H     0.86349   1.00767   1.06417   0.00000  Uiso   1.00
C5488  C     0.87838   1.00731   1.15130   0.00000  Uiso   1.00
C5489  C     0.67282   1.06696   1.16477   0.00000  Uiso   1.00
C5490  C     0.80110   1.10838   1.01431   0.00000  Uiso   1.00
C5491  C     0.83429   1.20789   1.13381   0.00000  Uiso   1.00
H5492  H     0.76258   1.19666   0.98120   0.00000  Uiso   1.00
H5493  H     0.74899   1.13090   1.06837   0.00000  Uiso   1.00
H5494  H     0.73324   1.02182   1.10832   0.00000  Uiso   1.00
C5495  C     0.78632   1.10758   1.06216   0.00000  Uiso   1.00
C5496  C     0.69221   1.16187   1.02007   0.00000  Uiso   1.00
C5497  C     0.68027   1.02093   1.05976   0.00000  Uiso   1.00
C5498  C     0.63278   1.16292   1.20551   0.00000  Uiso   1.00
H5499  H     0.63773   1.00422   1.09611   0.00000  Uiso   1.00
H5500  H     0.61765   1.00027   1.05508   0.00000  Uiso   1.00
C5501  C     0.85361   1.18609   1.13302   0.00000  Uiso   1.00
C5502  C     0.71808   1.01418   1.09258   0.00000  Uiso   1.00
C5503  C     0.75476   1.19685   1.15594   0.00000  Uiso   1.00
O5504  O     0.56468   1.12711   1.18321   0.00000  Uiso   1.00
C5505  C     0.59334   1.04962   1.04302   0.00000  Uiso   1.00
C5506  C     0.81605   1.15745   1.14846   0.00000  Uiso   1.00
O5507  O     0.66363   1.18548   1.07141   0.00000  Uiso   1.00
H5508  H     0.85852   1.15867   1.07991   0.00000  Uiso   1.00
C5509  C     0.69906   1.03131   1.07938   0.00000  Uiso   1.00
O5510  O     0.87948   1.19061   1.12308   0.00000  Uiso   1.00
H5511  H     0.75769   1.08122   1.08648   0.00000  Uiso   1.00
H5512  H     0.82180   1.15349   1.00620   0.00000  Uiso   1.00
H5513  H     0.88654   1.17615   1.06604   0.00000  Uiso   1.00
H5514  H     0.58584   1.07625   1.19235   0.00000  Uiso   1.00
C5515  C     0.80793   1.13143   1.15314   0.00000  Uiso   1.00
H5516  H     0.60541   1.09506   1.13089   0.00000  Uiso   1.00
C5517  C     0.87570   0.99430   1.17688   0.00000  Uiso   1.00
C5518  C     0.65530   1.18161   1.09964   0.00000  Uiso   1.00
C5519  C     0.68980   1.07513   1.06450   0.00000  Uiso   1.00
H5520  H     0.78958   1.08575   1.10055   0.00000  Uiso   1.00
C5521  C     0.79788   1.17858   1.14680   0.00000  Uiso   1.00
C5522  C     0.59333   1.09303   1.01848   0.00000  Uiso   1.00
O5523  O     0.66440   1.12529   0.99903   0.00000  Uiso   1.00
C5524  C     0.79784   1.10372   0.98597   0.00000  Uiso   1.00
C5525  C     0.59071   1.05033   0.99334   0.00000  Uiso   1.00
H5526  H     0.65131   1.15238   1.21431   0.00000  Uiso   1.00
C5527  C     0.67511   1.15133   0.99850   0.00000  Uiso   1.00
C5528  C     0.86419   1.17107   1.06175   0.00000  Uiso   1.00
O5529  O     0.61943   1.14593   1.09324   0.00000  Uiso   1.00
H5530  H     0.86641   1.17347   0.99001   0.00000  Uiso   1.00
C5531  C     0.75112   1.14871   1.22124   0.00000  Uiso   1.00
O5532  O     0.66478   1.02249   1.13959   0.00000  Uiso   1.00
H5533  H     0.81664   1.16455   1.04025   0.00000  Uiso   1.00
C5534  C     0.70946   1.21526   1.17057   0.00000  Uiso   1.00
C5535  C     0.64357   1.03749   1.12536   0.00000  Uiso   1.00
H5536  H     0.87176   1.02812   1.14848   0.00000  Uiso   1.00
C5537  C     0.87283   1.13088   1.02790   0.00000  Uiso   1.00
H5538  H     0.82775   1.09184   1.06548   0.00000  Uiso   1.00
O5539  O     0.70060   1.05948   1.08640   0.00000  Uiso   1.00
N5540  N     0.75846   1.13146   1.20670   0.00000  Uiso   1.00
C5541  C     0.58893   1.03093   1.06761   0.00000  Uiso   1.00
C5542  C     0.85913   1.15888   1.03330   0.00000  Uiso   1.00
C5543  C     0.84400   1.16063   1.14306   0.00000  Uiso   1.00
N5544  N     0.68922   1.00423   0.99025   0.00000  Uiso   1.00
C5545  C     0.57357   1.15993   0.99576   0.00000  Uiso   1.00
C5546  C     0.86709   1.18017   1.01332   0.00000  Uiso   1.00
H5547  H     0.84302   1.07027   1.01330   0.00000  Uiso   1.00
C5548  C     0.59570   1.07806   1.04292   0.00000  Uiso   1.00
C5549  C     0.86237   0.99939   1.08580   0.00000  Uiso   1.00
N5550  N     0.80097   1.10816   1.15626   0.00000  Uiso   1.00
C5551  C     0.67350   1.10803   1.02123   0.00000  Uiso   1.00
C5552  C     0.55686   0.99571   1.01530   0.00000  Uiso   1.00
O5553  O     0.72034   1.02180   1.22226   0.00000  Uiso   1.00
C5554  C     0.69424   1.02405   1.17980   0.00000  Uiso   1.00
C5555  C     0.67376   1.06318   1.04262   0.00000  Uiso   1.00
H5556  H     0.77342   1.14036   1.09102   0.00000  Uiso   1.00
C5557  C     0.61205   1.07531   1.12285   0.00000  Uiso   1.00
H5558  H     0.59559   1.08941   1.06342   0.00000  Uiso   1.00
C5559  C     0.72733   1.19461   1.16526   0.00000  Uiso   1.00
H5560  H     0.66939   0.98383   1.03740   0.00000  Uiso   1.00
C5561  C     0.86104   1.08344   1.01616   0.00000  Uiso   1.00
C5562  C     0.77079   1.13369   1.06904   0.00000  Uiso   1.00
H5563  H     0.60036   1.15204   1.09167   0.00000  Uiso   1.00
O5564  O     0.73486   1.06004   0.99000   0.00000  Uiso   1.00
C5565  C     0.78033   1.08249   1.08049   0.00000  Uiso   1.00
C5566  C     0.67045   1.19707   1.11802   0.00000  Uiso   1.00
C5567  C     0.69385   0.99539   1.17979   0.00000  Uiso   1.00
H5568  H     0.78250   1.06232   1.07056   0.00000  Uiso   1.00
C5569  C     0.63746   1.18777   1.18767   0.00000  Uiso   1.00
C5570  C     0.85409   1.11005   1.02558   0.00000  Uiso   1.00
C5571  C     0.77958   1.10099   1.03244   0.00000  Uiso   1.00
H5572  H     0.82524   1.12423   1.07688   0.00000  Uiso   1.00
H5573  H     0.77527   1.15238   1.05505   0.00000  Uiso   1.00
C5574  C     0.66527   1.19822   1.14650   0.00000  Uiso   1.00
O5575  O     0.59088   1.12180   1.02052   0.00000  Uiso   1.00
C5576  C     0.68734   1.10897   1.18579   0.00000  Uiso   1.00
C5577  C     0.57618   1.11668   1.20798   0.00000  Uiso   1.00
C5578  C     0.56429   1.05963   1.10122   0.00000  Uiso   1.00
C5579  C     0.82911   1.15077   1.02704   0.00000  Uiso   1.00
C5580  C     0.77542   1.08810   0.97613   0.00000  Uiso   1.00
C5581  C     0.70735   1.03745   1.20089   0.00000  Uiso   1.00
C5582  C     0.59222   1.07876   0.99367   0.00000  Uiso   1.00
H5583  H     0.85243   1.19094   1.06556   0.00000  Uiso   1.00
C5584  C     0.70848   1.06697   1.20130   0.00000  Uiso   1.00
H5585  H     0.84986   1.01362   1.09680   0.00000  Uiso   1.00
H5586  H     0.55695   1.10082   1.11148   0.00000  Uiso   1.00
C5587  C     0.58722   1.00514   1.02268   0.00000  Uiso   1.00
C5588  C     0.58438   1.13298   0.99461   0.00000  Uiso   1.00
C5589  C     0.65712   1.06647   0.99794   0.00000  Uiso   1.00
H5590  H     0.77548   0.98572   1.08453   0.00000  Uiso   1.00
H5591  H     0.59455   1.19698   1.17662   0.00000  Uiso   1.00
H5592  H     0.58727   1.21487   1.09315   0.00000  Uiso   1.00
C5593  C     0.61076   1.20524   1.19005   0.00000  Uiso   1.00
H5594  H     0.62099   1.14779   1.19522   0.00000  Uiso   1.00
C5595  C     0.88744   0.99109   1.12883   0.00000  Uiso   1.00
C5596  C     0.67771   1.21521   1.16946   0.00000  Uiso   1.00
H5597  H     0.62895   1.04789   1.19918   0.00000  Uiso   1.00
C5598  C     0.88820   1.07765   1.00976   0.00000  Uiso   1.00
H5599  H     0.82700   1.20881   1.20494   0.00000  Uiso   1.00
H5600  H     0.59967   0.98808   0.98318   0.00000  Uiso   1.00
N5601  N     0.56181   1.15018   1.11400   0.00000  Uiso   1.00
N5602  N     0.65081   1.05624   0.97698   0.00000  Uiso   1.00
C5603  C     0.57257   1.17402   1.02153   0.00000  Uiso   1.00
H5604  H     0.67671   1.18913   1.20549   0.00000  Uiso   1.00
N5605  N     0.57186   1.18610   1.04334   0.00000  Uiso   1.00
C5606  C     0.58871   1.09100   1.20892   0.00000  Uiso   1.00
H5607  H     0.85276   0.97938   1.08470   0.00000  Uiso   1.00
C5608  C     0.69820   0.97585   1.06952   0.00000  Uiso   1.00
H5609  H     0.87980   1.21503   1.22126   0.00000  Uiso   1.00
C5610  C     0.72395   1.22194   0.97732   0.00000  Uiso   1.00
C5611  C     0.88935   1.14245   1.13509   0.00000  Uiso   1.00
O5612  O     0.72459   1.08171   1.22070   0.00000  Uiso   1.00
O5613  O     0.77831   1.19874   1.22266   0.00000  Uiso   1.00
H5614  H     0.57737   1.03033   1.21945   0.00000  Uiso   1.00
H5615  H     0.58748   1.03664   0.97580   0.00000  Uiso   1.00
H5616  H     0.88953   1.18143   1.01482   0.00000  Uiso   1.00
H5617  H     1.14562   0.25296   0.25258   0.00000  Uiso   1.00
C5618  C     1.14007   0.40644   0.27162   0.00000  Uiso   1.00
C5619  C     0.89995   0.45831   0.28337   0.00000  Uiso   1.00
C5620  C     0.98326   0.46652   0.39195   0.00000  Uiso   1.00
C5621  C     0.93727   0.37843   0.32399   0.00000  Uiso   1.00
C5622  C     1.09378   0.46890   0.26535   0.00000  Uiso   1.00
N5623  N     1.08524   0.27828   0.41152   0.00000  Uiso   1.00
H5624  H     0.95082   0.34994   0.42520   0.00000  Uiso   1.00
H5625  H     0.98722   0.35674   0.29013   0.00000  Uiso   1.00
H5626  H     1.10050   0.40078   0.32950   0.00000  Uiso   1.00
C5627  C     1.17495   0.31543   0.43216   0.00000  Uiso   1.00
H5628  H     1.05037   0.46565   0.27130   0.00000  Uiso   1.00
C5629  C     0.98191   0.43430   0.43220   0.00000  Uiso   1.00
N5630  N     0.93018   0.24998   0.41067   0.00000  Uiso   1.00
H5631  H     0.95314   0.35962   0.27034   0.00000  Uiso   1.00
C5632  C     0.95382   0.33865   0.34724   0.00000  Uiso   1.00
C5633  C     1.18586   0.34273   0.43539   0.00000  Uiso   1.00
C5634  C     0.92882   0.43086   0.31536   0.00000  Uiso   1.00
H5635  H     0.90748   0.42585   0.31812   0.00000  Uiso   1.00
H5636  H     0.90669   0.23688   0.22593   0.00000  Uiso   1.00
O5637  O     1.07680   0.39874   0.42033   0.00000  Uiso   1.00
N5638  N     1.14223   0.42970   0.42905   0.00000  Uiso   1.00
C5639  C     1.08691   0.28391   0.27569   0.00000  Uiso   1.00
C5640  C     1.21256   0.37857   0.23944   0.00000  Uiso   1.00
C5641  C     0.90421   0.34614   0.34174   0.00000  Uiso   1.00
C5642  C     1.03902   0.23406   0.34209   0.00000  Uiso   1.00
O5643  O     1.06654   0.28359   0.29590   0.00000  Uiso   1.00
H5644  H     1.04997   0.40699   0.31915   0.00000  Uiso   1.00
C5645  C     1.22179   0.29847   0.43920   0.00000  Uiso   1.00
C5646  C     0.94491   0.37844   0.26102   0.00000  Uiso   1.00
C5647  C     1.03883   0.36690   0.42702   0.00000  Uiso   1.00
C5648  C     0.94550   0.40394   0.30919   0.00000  Uiso   1.00
C5649  C     1.12809   0.26840   0.25435   0.00000  Uiso   1.00
H5650  H     0.89201   0.38227   0.31846   0.00000  Uiso   1.00
N5651  N     1.00342   0.29402   0.33377   0.00000  Uiso   1.00
C5652  C     0.93196   0.42669   0.23687   0.00000  Uiso   1.00
H5653  H     1.04074   0.43661   0.42484   0.00000  Uiso   1.00
H5654  H     0.97698   0.42116   0.33431   0.00000  Uiso   1.00
C5655  C     1.21454   0.34778   0.43819   0.00000  Uiso   1.00
C5656  C     0.94459   0.37818   0.23255   0.00000  Uiso   1.00
H5657  H     1.02121   0.39625   0.35137   0.00000  Uiso   1.00
C5658  C     1.10783   0.40870   0.30917   0.00000  Uiso   1.00
H5659  H     0.96933   0.42328   0.39101   0.00000  Uiso   1.00
C5660  C     1.01153   0.36331   0.43611   0.00000  Uiso   1.00
H5661  H     0.99080   0.38944   0.37004   0.00000  Uiso   1.00
H5662  H     1.00891   0.45523   0.35514   0.00000  Uiso   1.00
C5663  C     1.07180   0.44576   0.30644   0.00000  Uiso   1.00
C5664  C     1.09546   0.43037   0.29595   0.00000  Uiso   1.00
C5665  C     0.96381   0.38655   0.44875   0.00000  Uiso   1.00
C5666  C     0.89523   0.29817   0.37151   0.00000  Uiso   1.00
C5667  C     0.91163   0.26064   0.39949   0.00000  Uiso   1.00
O5668  O     0.92361   0.30620   0.36796   0.00000  Uiso   1.00
C5669  C     1.13004   0.33252   0.42760   0.00000  Uiso   1.00
H5670  H     0.93528   0.44169   0.33509   0.00000  Uiso   1.00
H5671  H     0.95265   0.38109   0.40527   0.00000  Uiso   1.00
C5672  C     1.09351   0.30004   0.41716   0.00000  Uiso   1.00
C5673  C     1.12978   0.39631   0.29652   0.00000  Uiso   1.00
C5674  C     1.19379   0.29272   0.43506   0.00000  Uiso   1.00
C5675  C     1.06590   0.26221   0.31327   0.00000  Uiso   1.00
H5676  H     0.89151   0.33124   0.27988   0.00000  Uiso   1.00
H5677  H     1.00007   0.34417   0.43652   0.00000  Uiso   1.00
H5678  H     0.93986   0.42299   0.44701   0.00000  Uiso   1.00
C5679  C     0.95147   0.46971   0.28651   0.00000  Uiso   1.00
O5680  O     1.14723   0.30941   0.43016   0.00000  Uiso   1.00
O5681  O     1.14247   0.37532   0.31086   0.00000  Uiso   1.00
H5682  H     1.00982   0.34085   0.31050   0.00000  Uiso   1.00
O5683  O     1.16951   0.36600   0.43466   0.00000  Uiso   1.00
H5684  H     1.01130   0.36118   0.36040   0.00000  Uiso   1.00
C5685  C     0.99422   0.38651   0.43908   0.00000  Uiso   1.00
C5686  C     1.04098   0.25878   0.32863   0.00000  Uiso   1.00
C5687  C     1.10252   0.32737   0.42139   0.00000  Uiso   1.00
C5688  C     1.12299   0.38081   0.42577   0.00000  Uiso   1.00
C5689  C     1.12484   0.28514   0.23084   0.00000  Uiso   1.00
C5690  C     1.03301   0.41578   0.42840   0.00000  Uiso   1.00
H5691  H     1.22091   0.37047   0.44058   0.00000  Uiso   1.00
C5692  C     0.98620   0.37778   0.32723   0.00000  Uiso   1.00
O5693  O     1.16118   0.39324   0.25827   0.00000  Uiso   1.00
C5694  C     0.94676   0.37345   0.42521   0.00000  Uiso   1.00
H5695  H     1.02736   0.43305   0.31183   0.00000  Uiso   1.00
C5696  C     1.09412   0.37519   0.42186   0.00000  Uiso   1.00
H5697  H     1.04299   0.41345   0.28397   0.00000  Uiso   1.00
C5698  C     1.04690   0.42447   0.30484   0.00000  Uiso   1.00
H5699  H     0.98769   0.41446   0.29824   0.00000  Uiso   1.00
H5700  H     1.07151   0.44449   0.35261   0.00000  Uiso   1.00
N5701  N     1.17429   0.34165   0.36838   0.00000  Uiso   1.00
H5702  H     1.18717   0.27042   0.43362   0.00000  Uiso   1.00
C5703  C     1.04999   0.39360   0.42485   0.00000  Uiso   1.00
C5704  C     1.00905   0.46445   0.37593   0.00000  Uiso   1.00
C5705  C     1.02009   0.27825   0.33201   0.00000  Uiso   1.00
C5706  C     1.14170   0.35952   0.42853   0.00000  Uiso   1.00
C5707  C     0.94240   0.40119   0.27668   0.00000  Uiso   1.00
O5708  O     1.11184   0.24554   0.29623   0.00000  Uiso   1.00
C5709  C     1.00151   0.36148   0.30493   0.00000  Uiso   1.00
H5710  H     0.89825   0.46880   0.26387   0.00000  Uiso   1.00
C5711  C     1.10178   0.30349   0.23186   0.00000  Uiso   1.00
C5712  C     1.00418   0.38154   0.35350   0.00000  Uiso   1.00
C5713  C     1.12986   0.43026   0.26030   0.00000  Uiso   1.00
C5714  C     0.96111   0.41865   0.45058   0.00000  Uiso   1.00
O5715  O     1.05578   0.34345   0.42338   0.00000  Uiso   1.00
C5716  C     1.18705   0.35413   0.31880   0.00000  Uiso   1.00
C5717  C     0.97657   0.40625   0.31604   0.00000  Uiso   1.00
C5718  C     1.00472   0.41315   0.43214   0.00000  Uiso   1.00
H5719  H     1.01722   0.37522   0.29838   0.00000  Uiso   1.00
O5720  O     1.01395   0.22756   0.35622   0.00000  Uiso   1.00
C5721  C     1.17732   0.37568   0.27462   0.00000  Uiso   1.00
C5722  C     1.13302   0.40763   0.42788   0.00000  Uiso   1.00
H5723  H     0.97090   0.32604   0.35615   0.00000  Uiso   1.00
C5724  C     1.18001   0.34672   0.34602   0.00000  Uiso   1.00
C5725  C     1.10861   0.26457   0.27501   0.00000  Uiso   1.00
H5726  H     1.07068   0.46544   0.22617   0.00000  Uiso   1.00
C5727  C     1.10695   0.44138   0.27172   0.00000  Uiso   1.00
H5728  H     1.11386   0.35630   0.24027   0.00000  Uiso   1.00
H5729  H     1.06574   0.31746   0.25511   0.00000  Uiso   1.00
C5730  C     1.07628   0.45834   0.33600   0.00000  Uiso   1.00
C5731  C     1.22108   0.35393   0.28335   0.00000  Uiso   1.00
C5732  C     1.08298   0.30262   0.25390   0.00000  Uiso   1.00
H5733  H     0.92400   0.37586   0.42883   0.00000  Uiso   1.00
C5734  C     1.16857   0.36805   0.30130   0.00000  Uiso   1.00
H5735  H     0.97346   0.46234   0.28827   0.00000  Uiso   1.00
H5736  H     1.02511   0.45309   0.38731   0.00000  Uiso   1.00
H5737  H     0.94889   0.44599   0.40648   0.00000  Uiso   1.00
C5738  C     0.99004   0.46369   0.44057   0.00000  Uiso   1.00
C5739  C     0.92659   0.32953   0.35161   0.00000  Uiso   1.00
C5740  C     0.90994   0.37055   0.32767   0.00000  Uiso   1.00
C5741  C     0.97033   0.44023   0.40376   0.00000  Uiso   1.00
H5742  H     1.13985   0.43809   0.24162   0.00000  Uiso   1.00
C5743  C     0.93538   0.42578   0.26489   0.00000  Uiso   1.00
C5744  C     1.08487   0.34913   0.42271   0.00000  Uiso   1.00
C5745  C     0.92971   0.44765   0.28881   0.00000  Uiso   1.00
C5746  C     0.95936   0.36248   0.33235   0.00000  Uiso   1.00
C5747  C     1.20330   0.36803   0.26519   0.00000  Uiso   1.00
C5748  C     1.08732   0.24149   0.31398   0.00000  Uiso   1.00
H5749  H     0.92950   0.44895   0.22860   0.00000  Uiso   1.00
C5750  C     0.99715   0.47220   0.46694   0.00000  Uiso   1.00
H5751  H     0.96393   0.42444   0.47242   0.00000  Uiso   1.00
N5752  N     1.22153   0.40624   0.31423   0.00000  Uiso   1.00
C5753  C     1.21294   0.34759   0.31061   0.00000  Uiso   1.00
H5754  H     0.95431   0.47056   0.35964   0.00000  Uiso   1.00
C5755  C     1.06881   0.46944   0.28474   0.00000  Uiso   1.00
H5756  H     1.08120   0.35873   0.22701   0.00000  Uiso   1.00
H5757  H     1.09820   0.46412   0.33967   0.00000  Uiso   1.00
H5758  H     0.89167   0.47245   0.29956   0.00000  Uiso   1.00
H5759  H     0.95815   0.34857   0.47067   0.00000  Uiso   1.00
H5760  H     0.89059   0.36347   0.26622   0.00000  Uiso   1.00
C5761  C     0.91896   0.37290   0.61299   0.00000  Uiso   1.00
H5762  H     1.21553   0.44072   0.66902   0.00000  Uiso   1.00
C5763  C     1.21776   0.46654   0.70559   0.00000  Uiso   1.00
H5764  H     1.15176   0.41309   0.63054   0.00000  Uiso   1.00
C5765  C     1.00076   0.46992   0.64157   0.00000  Uiso   1.00
O5766  O     1.15291   0.38802   0.49581   0.00000  Uiso   1.00
C5767  C     1.08731   0.43448   0.52751   0.00000  Uiso   1.00
O5768  O     1.04425   0.33705   0.52816   0.00000  Uiso   1.00
C5769  C     0.94755   0.31453   0.53785   0.00000  Uiso   1.00
H5770  H     1.10203   0.38331   0.66398   0.00000  Uiso   1.00
H5771  H     1.07780   0.44336   0.50899   0.00000  Uiso   1.00
O5772  O     1.03392   0.28900   0.59571   0.00000  Uiso   1.00
C5773  C     1.15464   0.26134   0.53201   0.00000  Uiso   1.00
H5774  H     0.90550   0.32335   0.67335   0.00000  Uiso   1.00
H5775  H     0.99974   0.40420   0.61793   0.00000  Uiso   1.00
C5776  C     0.99429   0.32675   0.53151   0.00000  Uiso   1.00
C5777  C     0.97778   0.28437   0.51050   0.00000  Uiso   1.00
H5778  H     0.93129   0.41504   0.59848   0.00000  Uiso   1.00
H5779  H     1.10793   0.44778   0.57798   0.00000  Uiso   1.00
O5780  O     0.95633   0.26558   0.50723   0.00000  Uiso   1.00
H5781  H     0.93933   0.36618   0.72227   0.00000  Uiso   1.00
H5782  H     0.96293   0.36986   0.61794   0.00000  Uiso   1.00
C5783  C     0.92014   0.37632   0.71548   0.00000  Uiso   1.00
C5784  C     0.98271   0.45620   0.59589   0.00000  Uiso   1.00
C5785  C     1.02953   0.44656   0.60639   0.00000  Uiso   1.00
H5786  H     1.15857   0.44190   0.65418   0.00000  Uiso   1.00
C5787  C     1.14711   0.42090   0.65092   0.00000  Uiso   1.00
H5788  H     1.15138   0.44024   0.49014   0.00000  Uiso   1.00
C5789  C     0.96233   0.28185   0.62208   0.00000  Uiso   1.00
C5790  C     1.00929   0.25327   0.57210   0.00000  Uiso   1.00
C5791  C     0.99363   0.41998   0.63225   0.00000  Uiso   1.00
C5792  C     1.09145   0.43252   0.57730   0.00000  Uiso   1.00
C5793  C     1.13930   0.34097   0.50304   0.00000  Uiso   1.00
O5794  O     1.12129   0.29672   0.51478   0.00000  Uiso   1.00
H5795  H     0.92690   0.39279   0.70077   0.00000  Uiso   1.00
C5796  C     0.96626   0.29290   0.64800   0.00000  Uiso   1.00
C5797  C     1.05906   0.38095   0.54436   0.00000  Uiso   1.00
C5798  C     1.05948   0.25180   0.57536   0.00000  Uiso   1.00
H5799  H     1.12021   0.39238   0.70746   0.00000  Uiso   1.00
N5800  N     0.91579   0.25733   0.61171   0.00000  Uiso   1.00
H5801  H     0.94990   0.35018   0.58950   0.00000  Uiso   1.00
C5802  C     1.10854   0.22812   0.54371   0.00000  Uiso   1.00
H5803  H     0.97173   0.42019   0.63641   0.00000  Uiso   1.00
O5804  O     0.89184   0.26026   0.53599   0.00000  Uiso   1.00
C5805  C     1.16046   0.36019   0.50124   0.00000  Uiso   1.00
H5806  H     1.04309   0.46507   0.61082   0.00000  Uiso   1.00
O5807  O     0.98841   0.35061   0.54782   0.00000  Uiso   1.00
C5808  C     1.21939   0.44179   0.49137   0.00000  Uiso   1.00
H5809  H     1.07646   0.40676   0.65939   0.00000  Uiso   1.00
C5810  C     1.03353   0.26509   0.57975   0.00000  Uiso   1.00
C5811  C     0.89881   0.35480   0.70542   0.00000  Uiso   1.00
N5812  N     1.09048   0.35562   0.49264   0.00000  Uiso   1.00
C5813  C     1.00142   0.44754   0.61965   0.00000  Uiso   1.00
C5814  C     0.91086   0.46954   0.48855   0.00000  Uiso   1.00
H5815  H     1.04633   0.22973   0.68762   0.00000  Uiso   1.00
C5816  C     1.19304   0.45128   0.49783   0.00000  Uiso   1.00
C5817  C     1.17170   0.43384   0.49602   0.00000  Uiso   1.00
C5818  C     1.00988   0.29273   0.61154   0.00000  Uiso   1.00
O5819  O     0.98333   0.26244   0.58158   0.00000  Uiso   1.00
C5820  C     1.18527   0.46702   0.70753   0.00000  Uiso   1.00
H5821  H     0.93100   0.25117   0.70818   0.00000  Uiso   1.00
H5822  H     0.98322   0.39996   0.56771   0.00000  Uiso   1.00
C5823  C     1.00525   0.39428   0.56229   0.00000  Uiso   1.00
C5824  C     1.02707   0.41282   0.56525   0.00000  Uiso   1.00
C5825  C     1.14455   0.31391   0.51244   0.00000  Uiso   1.00
C5826  C     1.01038   0.36736   0.55222   0.00000  Uiso   1.00
C5827  C     0.94004   0.22652   0.48445   0.00000  Uiso   1.00
C5828  C     1.15769   0.23677   0.54593   0.00000  Uiso   1.00
H5829  H     1.08466   0.25772   0.52133   0.00000  Uiso   1.00
O5830  O     1.17705   0.27698   0.52521   0.00000  Uiso   1.00
C5831  C     1.02555   0.44320   0.57406   0.00000  Uiso   1.00
C5832  C     1.03758   0.36155   0.54220   0.00000  Uiso   1.00
H5833  H     1.04205   0.42868   0.61357   0.00000  Uiso   1.00
C5834  C     1.04988   0.45637   0.55875   0.00000  Uiso   1.00
C5835  C     1.11355   0.34987   0.49790   0.00000  Uiso   1.00
O5836  O     1.17442   0.22603   0.69830   0.00000  Uiso   1.00
H5837  H     1.00592   0.41843   0.65153   0.00000  Uiso   1.00
C5838  C     1.11808   0.43261   0.69165   0.00000  Uiso   1.00
H5839  H     1.10360   0.41215   0.57610   0.00000  Uiso   1.00
H5840  H     1.15948   0.40701   0.66529   0.00000  Uiso   1.00
C5841  C     1.19185   0.32376   0.51465   0.00000  Uiso   1.00
C5842  C     1.17582   0.40526   0.49702   0.00000  Uiso   1.00
C5843  C     0.93632   0.26820   0.61564   0.00000  Uiso   1.00
C5844  C     1.06071   0.22772   0.55997   0.00000  Uiso   1.00
H5845  H     1.07862   0.26012   0.58296   0.00000  Uiso   1.00
C5846  C     0.98426   0.29943   0.70065   0.00000  Uiso   1.00
H5847  H     0.99450   0.24028   0.64754   0.00000  Uiso   1.00
O5848  O     0.94657   0.28790   0.66827   0.00000  Uiso   1.00
C5849  C     1.12680   0.27130   0.52649   0.00000  Uiso   1.00
C5850  C     1.09858   0.40277   0.65317   0.00000  Uiso   1.00
C5851  C     1.17069   0.30430   0.51653   0.00000  Uiso   1.00
H5852  H     1.08306   0.44819   0.64512   0.00000  Uiso   1.00
C5853  C     0.95463   0.46059   0.59337   0.00000  Uiso   1.00
C5854  C     0.90472   0.46422   0.53777   0.00000  Uiso   1.00
C5855  C     0.89474   0.35345   0.60712   0.00000  Uiso   1.00
C5856  C     1.00332   0.28082   0.49712   0.00000  Uiso   1.00
H5857  H     0.94428   0.33999   0.62420   0.00000  Uiso   1.00
C5858  C     1.02081   0.31970   0.52208   0.00000  Uiso   1.00
C5859  C     0.98528   0.27993   0.60447   0.00000  Uiso   1.00
H5860  H     1.17855   0.23005   0.54970   0.00000  Uiso   1.00
C5861  C     0.98776   0.46651   0.54688   0.00000  Uiso   1.00
H5862  H     1.07835   0.37754   0.53557   0.00000  Uiso   1.00
C5863  C     0.95925   0.28538   0.69352   0.00000  Uiso   1.00
C5864  C     1.01317   0.30767   0.63637   0.00000  Uiso   1.00
H5865  H     1.10476   0.44892   0.53234   0.00000  Uiso   1.00
C5866  C     0.91930   0.39642   0.59299   0.00000  Uiso   1.00
H5867  H     0.92261   0.38851   0.57173   0.00000  Uiso   1.00
H5868  H     0.94188   0.45604   0.61325   0.00000  Uiso   1.00
C5869  C     1.20256   0.39476   0.49491   0.00000  Uiso   1.00
H5870  H     0.93301   0.38775   0.65532   0.00000  Uiso   1.00
C5871  C     1.10548   0.45219   0.64866   0.00000  Uiso   1.00
H5872  H     1.10034   0.39730   0.63186   0.00000  Uiso   1.00
C5873  C     0.99083   0.30535   0.65532   0.00000  Uiso   1.00
H5874  H     1.03079   0.24834   0.64315   0.00000  Uiso   1.00
N5875  N     0.92713   0.31849   0.54862   0.00000  Uiso   1.00
N5876  N     0.90610   0.30514   0.47970   0.00000  Uiso   1.00
H5877  H     1.09646   0.41409   0.52286   0.00000  Uiso   1.00
C5878  C     1.11367   0.46029   0.69610   0.00000  Uiso   1.00
C5879  C     1.10554   0.25300   0.53070   0.00000  Uiso   1.00
C5880  C     1.02477   0.29760   0.50401   0.00000  Uiso   1.00
C5881  C     0.94240   0.46651   0.56870   0.00000  Uiso   1.00
C5882  C     1.03807   0.31918   0.64305   0.00000  Uiso   1.00
C5883  C     1.11762   0.42651   0.66089   0.00000  Uiso   1.00
H5884  H     1.11415   0.45617   0.62897   0.00000  Uiso   1.00
H5885  H     1.00981   0.23729   0.69378   0.00000  Uiso   1.00
C5886  C     1.18653   0.35001   0.50582   0.00000  Uiso   1.00
N5887  N     1.05995   0.32875   0.64797   0.00000  Uiso   1.00
C5888  C     1.06992   0.43306   0.55466   0.00000  Uiso   1.00
H5889  H     1.08311   0.42885   0.59851   0.00000  Uiso   1.00
H5890  H     0.90098   0.40306   0.63947   0.00000  Uiso   1.00
O5891  O     0.99682   0.31482   0.68143   0.00000  Uiso   1.00
C5892  C     0.94545   0.35807   0.61017   0.00000  Uiso   1.00
O5893  O     1.00896   0.25827   0.47980   0.00000  Uiso   1.00
C5894  C     1.04890   0.29048   0.49112   0.00000  Uiso   1.00
H5895  H     0.97044   0.37686   0.49139   0.00000  Uiso   1.00
H5896  H     0.93239   0.34577   0.67777   0.00000  Uiso   1.00
H5897  H     0.99964   0.45708   0.48261   0.00000  Uiso   1.00
C5898  C     0.99784   0.45609   0.57118   0.00000  Uiso   1.00
O5899  O     1.21011   0.36727   0.50118   0.00000  Uiso   1.00
H5900  H     1.01422   0.46412   0.65974   0.00000  Uiso   1.00
C5901  C     1.21724   0.31428   0.52092   0.00000  Uiso   1.00
C5902  C     0.97287   0.30862   0.52589   0.00000  Uiso   1.00
C5903  C     1.05251   0.40737   0.55470   0.00000  Uiso   1.00
C5904  C     0.96075   0.24533   0.48758   0.00000  Uiso   1.00
C5905  C     0.89099   0.23925   0.55493   0.00000  Uiso   1.00
C5906  C     0.95928   0.47162   0.54426   0.00000  Uiso   1.00
C5907  C     0.89670   0.36181   0.65539   0.00000  Uiso   1.00
C5908  C     1.11883   0.41398   0.71180   0.00000  Uiso   1.00
C5909  C     1.00971   0.22951   0.55640   0.00000  Uiso   1.00
C5910  C     0.98596   0.24262   0.47369   0.00000  Uiso   1.00
C5911  C     0.90939   0.34434   0.67708   0.00000  Uiso   1.00
C5912  C     0.94821   0.26602   0.71165   0.00000  Uiso   1.00
H5913  H     1.17531   0.44883   0.69982   0.00000  Uiso   1.00
H5914  H     1.01496   0.22329   0.62043   0.00000  Uiso   1.00
O5915  O     0.91321   0.46778   0.56484   0.00000  Uiso   1.00
C5916  C     1.12932   0.22922   0.71944   0.00000  Uiso   1.00
H5917  H     0.89893   0.40684   0.59283   0.00000  Uiso   1.00
C5918  C     1.01492   0.23101   0.64189   0.00000  Uiso   1.00
H5919  H     0.93117   0.22843   0.54809   0.00000  Uiso   1.00
C5920  C     0.91433   0.38443   0.64271   0.00000  Uiso   1.00
H5921  H     1.04584   0.46685   0.53905   0.00000  Uiso   1.00
H5922  H     1.00098   0.46656   0.52877   0.00000  Uiso   1.00
H5923  H     0.93493   0.37207   0.48140   0.00000  Uiso   1.00
C5924  C     1.20266   0.22710   0.70211   0.00000  Uiso   1.00
H5925  H     1.05432   0.46467   0.70252   0.00000  Uiso   1.00
H5926  H     0.97813   0.47291   0.64750   0.00000  Uiso   1.00
H5927  H     0.92060   0.23367   0.49373   0.00000  Uiso   1.00
C5928  C     1.15833   0.23220   0.72096   0.00000  Uiso   1.00
C5929  C     0.96166   0.47132   0.71776   0.00000  Uiso   1.00
N5930  N     1.06852   0.28310   0.47934   0.00000  Uiso   1.00
H5931  H     1.06021   0.47206   0.57199   0.00000  Uiso   1.00
C5932  C     0.95735   0.37031   0.47469   0.00000  Uiso   1.00
C5933  C     0.92186   0.47100   0.51516   0.00000  Uiso   1.00
C5934  C     1.11180   0.46996   0.72244   0.00000  Uiso   1.00
H5935  H     1.19583   0.41201   0.72217   0.00000  Uiso   1.00
C5936  C     0.92688   0.29761   0.90937   0.00000  Uiso   1.00
C5937  C     0.99584   0.29621   0.72684   0.00000  Uiso   1.00
C5938  C     1.04720   0.28070   0.92889   0.00000  Uiso   1.00
C5939  C     1.09779   0.43381   0.91518   0.00000  Uiso   1.00
H5940  H     1.02672   0.25640   0.85325   0.00000  Uiso   1.00
C5941  C     1.01661   0.28715   0.81915   0.00000  Uiso   1.00
H5942  H     0.98657   0.44418   0.85829   0.00000  Uiso   1.00
H5943  H     0.99116   0.31117   0.78885   0.00000  Uiso   1.00
H5944  H     1.04618   0.30989   0.84031   0.00000  Uiso   1.00
C5945  C     1.01115   0.25683   0.95273   0.00000  Uiso   1.00
C5946  C     1.07102   0.35588   0.96366   0.00000  Uiso   1.00
N5947  N     1.17608   0.31358   0.75182   0.00000  Uiso   1.00
C5948  C     1.13625   0.27910   0.90780   0.00000  Uiso   1.00
C5949  C     0.96326   0.32684   0.89136   0.00000  Uiso   1.00
H5950  H     1.17802   0.46813   0.72861   0.00000  Uiso   1.00
O5951  O     1.11192   0.46130   0.77104   0.00000  Uiso   1.00
C5952  C     1.01932   0.27820   0.93526   0.00000  Uiso   1.00
O5953  O     0.90719   0.31371   0.89473   0.00000  Uiso   1.00
C5954  C     0.99386   0.26945   0.77509   0.00000  Uiso   1.00
C5955  C     1.10445   0.45044   0.81853   0.00000  Uiso   1.00
H5956  H     1.10108   0.35453   0.90485   0.00000  Uiso   1.00
H5957  H     1.05196   0.29736   0.91402   0.00000  Uiso   1.00
C5958  C     0.89515   0.33136   0.72545   0.00000  Uiso   1.00
C5959  C     1.06878   0.24935   0.75693   0.00000  Uiso   1.00
C5960  C     0.96503   0.26675   0.93906   0.00000  Uiso   1.00
O5961  O     1.11246   0.40282   0.75945   0.00000  Uiso   1.00
H5962  H     1.12614   0.22953   0.95211   0.00000  Uiso   1.00
H5963  H     1.03142   0.24473   0.73515   0.00000  Uiso   1.00
C5964  C     1.03702   0.27481   0.79904   0.00000  Uiso   1.00
C5965  C     0.97312   0.28858   0.92306   0.00000  Uiso   1.00
C5966  C     0.95262   0.24246   0.75919   0.00000  Uiso   1.00
H5967  H     1.17214   0.29041   0.93410   0.00000  Uiso   1.00
H5968  H     1.06684   0.44778   0.96065   0.00000  Uiso   1.00
H5969  H     0.90682   0.45332   0.75799   0.00000  Uiso   1.00
C5970  C     1.06520   0.27286   0.80298   0.00000  Uiso   1.00
C5971  C     1.12492   0.25056   0.76509   0.00000  Uiso   1.00
O5972  O     1.08376   0.23655   0.73715   0.00000  Uiso   1.00
O5973  O     1.10286   0.44346   0.86692   0.00000  Uiso   1.00
H5974  H     0.93465   0.26989   0.78817   0.00000  Uiso   1.00
C5975  C     0.99121   0.29013   0.79873   0.00000  Uiso   1.00
H5976  H     1.09585   0.45589   0.91621   0.00000  Uiso   1.00
C5977  C     1.10199   0.39526   0.88563   0.00000  Uiso   1.00
C5978  C     1.16575   0.26422   0.79195   0.00000  Uiso   1.00
O5979  O     0.98254   0.25328   0.95797   0.00000  Uiso   1.00
C5980  C     1.11302   0.45173   0.74461   0.00000  Uiso   1.00
C5981  C     1.06604   0.26306   0.94123   0.00000  Uiso   1.00
H5982  H     1.02346   0.33246   0.81829   0.00000  Uiso   1.00
O5983  O     1.00132   0.29698   0.92101   0.00000  Uiso   1.00
N5984  N     0.97050   0.34617   0.87932   0.00000  Uiso   1.00
C5985  C     1.16955   0.24362   0.74519   0.00000  Uiso   1.00
O5986  O     1.20333   0.43976   0.95336   0.00000  Uiso   1.00
H5987  H     1.06879   0.34363   0.94404   0.00000  Uiso   1.00
C5988  C     1.08081   0.26093   0.78159   0.00000  Uiso   1.00
H5989  H     0.97290   0.28983   0.81337   0.00000  Uiso   1.00
H5990  H     0.91441   0.26607   0.75970   0.00000  Uiso   1.00
C5991  C     0.95445   0.30350   0.90769   0.00000  Uiso   1.00
C5992  C     0.98391   0.27769   0.74619   0.00000  Uiso   1.00
H5993  H     0.91280   0.38720   0.73436   0.00000  Uiso   1.00
C5994  C     1.09948   0.24524   0.90535   0.00000  Uiso   1.00
C5995  C     1.09978   0.41624   0.93908   0.00000  Uiso   1.00
C5996  C     1.11840   0.22366   0.85408   0.00000  Uiso   1.00
C5997  C     1.17896   0.45025   0.96359   0.00000  Uiso   1.00
C5998  C     1.09653   0.25835   0.93487   0.00000  Uiso   1.00
H5999  H     1.01303   0.30904   0.73442   0.00000  Uiso   1.00
H6000  H     0.99122   0.22472   0.77165   0.00000  Uiso   1.00
H6001  H     0.95562   0.43124   0.86770   0.00000  Uiso   1.00
C6002  C     1.09971   0.38771   0.93441   0.00000  Uiso   1.00
C6003  C     1.15318   0.25260   0.76704   0.00000  Uiso   1.00
C6004  C     1.10072   0.36603   0.80268   0.00000  Uiso   1.00
C6005  C     1.10404   0.39298   0.80891   0.00000  Uiso   1.00
H6006  H     1.01325   0.31964   0.85136   0.00000  Uiso   1.00
H6007  H     1.16234   0.40997   0.96098   0.00000  Uiso   1.00
C6008  C     1.10322   0.43198   0.84114   0.00000  Uiso   1.00
C6009  C     0.91770   0.27692   0.92655   0.00000  Uiso   1.00
C6010  C     1.14212   0.30301   0.88692   0.00000  Uiso   1.00
N6011  N     1.09698   0.34298   0.79752   0.00000  Uiso   1.00
H6012  H     1.09690   0.29939   0.91941   0.00000  Uiso   1.00
C6013  C     1.22174   0.45978   0.94347   0.00000  Uiso   1.00
H6014  H     0.96159   0.43836   0.83351   0.00000  Uiso   1.00
C6015  C     0.93715   0.26015   0.94071   0.00000  Uiso   1.00
C6016  C     0.96463   0.44704   0.85401   0.00000  Uiso   1.00
H6017  H     1.15730   0.29597   0.87061   0.00000  Uiso   1.00
C6018  C     1.11253   0.23700   0.74186   0.00000  Uiso   1.00
N6019  N     1.17597   0.27267   0.81242   0.00000  Uiso   1.00
C6020  C     1.12480   0.25432   0.89281   0.00000  Uiso   1.00
C6021  C     1.10540   0.40243   0.83596   0.00000  Uiso   1.00
C6022  C     1.11285   0.28514   0.92796   0.00000  Uiso   1.00
C6023  C     1.02455   0.31383   0.83217   0.00000  Uiso   1.00
C6024  C     1.10968   0.44157   0.79188   0.00000  Uiso   1.00
C6025  C     1.04054   0.25153   0.75409   0.00000  Uiso   1.00
H6026  H     1.15171   0.32005   0.89806   0.00000  Uiso   1.00
H6027  H     0.91637   0.23904   0.78577   0.00000  Uiso   1.00
H6028  H     0.91427   0.32039   0.73150   0.00000  Uiso   1.00
C6029  C     1.02396   0.26452   0.77458   0.00000  Uiso   1.00
H6030  H     1.12382   0.30820   0.87506   0.00000  Uiso   1.00
H6031  H     1.07670   0.27935   0.82349   0.00000  Uiso   1.00
C6032  C     1.10110   0.42393   0.88953   0.00000  Uiso   1.00
O6033  O     1.10939   0.26113   0.78637   0.00000  Uiso   1.00
C6034  C     0.97877   0.24230   0.77766   0.00000  Uiso   1.00
C6035  C     1.10899   0.41212   0.78768   0.00000  Uiso   1.00
O6036  O     1.10571   0.38289   0.85944   0.00000  Uiso   1.00
C6037  C     1.10054   0.37703   0.90795   0.00000  Uiso   1.00
C6038  C     1.16293   0.27330   0.92284   0.00000  Uiso   1.00
C6039  C     1.11506   0.42306   0.73951   0.00000  Uiso   1.00
H6040  H     0.97379   0.23747   0.79948   0.00000  Uiso   1.00
C6041  C     1.00935   0.26439   0.83979   0.00000  Uiso   1.00
H6042  H     0.92450   0.45343   0.79926   0.00000  Uiso   1.00
H6043  H     1.20506   0.37242   0.96966   0.00000  Uiso   1.00
H6044  H     1.14376   0.36032   0.95967   0.00000  Uiso   1.00
C6045  C     1.13490   0.24063   0.87001   0.00000  Uiso   1.00
O6046  O     1.19804   0.24642   0.74859   0.00000  Uiso   1.00
C6047  C     1.19819   0.32006   0.75902   0.00000  Uiso   1.00
H6048  H     1.12029   0.33865   0.94448   0.00000  Uiso   1.00
C6049  C     1.21373   0.23798   0.72696   0.00000  Uiso   1.00
C6050  C     1.10374   0.42473   0.96810   0.00000  Uiso   1.00
H6051  H     1.17841   0.26489   0.90827   0.00000  Uiso   1.00
H6052  H     0.98997   0.26671   0.85175   0.00000  Uiso   1.00
H6053  H     0.90406   0.43783   0.82330   0.00000  Uiso   1.00
C6054  C     1.09841   0.37219   0.96075   0.00000  Uiso   1.00
C6055  C     1.15698   0.43165   0.96532   0.00000  Uiso   1.00
C6056  C     1.03063   0.23931   0.96380   0.00000  Uiso   1.00
C6057  C     0.92803   0.25464   0.77366   0.00000  Uiso   1.00
C6058  C     1.05877   0.24319   0.96041   0.00000  Uiso   1.00
H6059  H     1.12088   0.29327   0.94793   0.00000  Uiso   1.00
H6060  H     1.16004   0.25719   0.93859   0.00000  Uiso   1.00
H6061  H     0.90981   0.45475   0.86674   0.00000  Uiso   1.00
C6062  C     1.12331   0.35219   0.96184   0.00000  Uiso   1.00
H6063  H     1.00624   0.24469   0.82968   0.00000  Uiso   1.00
C6064  C     0.93051   0.23864   0.95984   0.00000  Uiso   1.00
H6065  H     0.95423   0.47222   0.90256   0.00000  Uiso   1.00
C6066  C     0.96086   0.26402   0.73754   0.00000  Uiso   1.00
C6067  C     0.90651   0.45709   0.81106   0.00000  Uiso   1.00
C6068  C     1.08218   0.22904   0.89172   0.00000  Uiso   1.00
H6069  H     1.05986   0.22469   0.89709   0.00000  Uiso   1.00
C6070  C     1.10771   0.23998   0.95873   0.00000  Uiso   1.00
H6071  H     1.15606   0.24577   0.86241   0.00000  Uiso   1.00
C6072  C     1.08230   0.22449   0.96941   0.00000  Uiso   1.00
H6073  H     1.21205   0.23178   0.80880   0.00000  Uiso   1.00
O6074  O     1.21768   0.37271   0.74955   0.00000  Uiso   1.00
C6075  C     1.21624   0.41854   0.73061   0.00000  Uiso   1.00
H6076  H     1.05262   0.36883   0.96577   0.00000  Uiso   1.00
N6077  N     0.96152   0.44968   0.72627   0.00000  Uiso   1.00
C6078  C     0.89275   0.47099   0.76464   0.00000  Uiso   1.00
C6079  C     1.12995   0.44093   0.96929   0.00000  Uiso   1.00
O6080  O     1.17510   0.44676   1.04462   0.00000  Uiso   1.00
H6081  H     1.19064   0.32276   1.21248   0.00000  Uiso   1.00
H6082  H     1.07729   0.29717   1.18273   0.00000  Uiso   1.00
C6083  C     1.15997   0.40981   1.17736   0.00000  Uiso   1.00
C6084  C     0.93822   0.40426   1.21973   0.00000  Uiso   1.00
H6085  H     1.08354   0.39502   0.99483   0.00000  Uiso   1.00
C6086  C     1.12852   0.26543   1.18715   0.00000  Uiso   1.00
C6087  C     0.92113   0.33371   1.14890   0.00000  Uiso   1.00
C6088  C     1.09721   0.47205   0.98432   0.00000  Uiso   1.00
O6089  O     0.90055   0.36085   1.11187   0.00000  Uiso   1.00
C6090  C     1.22234   0.28991   1.20552   0.00000  Uiso   1.00
C6091  C     0.93155   0.38236   1.17809   0.00000  Uiso   1.00
H6092  H     0.92630   0.27131   1.09790   0.00000  Uiso   1.00
C6093  C     1.15781   0.40407   1.06500   0.00000  Uiso   1.00
C6094  C     1.17289   0.41785   1.04506   0.00000  Uiso   1.00
C6095  C     1.10277   0.39559   0.98198   0.00000  Uiso   1.00
C6096  C     1.18937   0.40443   1.02691   0.00000  Uiso   1.00
C6097  C     1.14831   0.30308   1.07128   0.00000  Uiso   1.00
H6098  H     1.13688   0.26447   1.09226   0.00000  Uiso   1.00
H6099  H     1.11867   0.39308   0.99791   0.00000  Uiso   1.00
H6100  H     1.14104   0.31945   1.02922   0.00000  Uiso   1.00
C6101  C     1.17172   0.28249   1.20402   0.00000  Uiso   1.00
H6102  H     1.16175   0.24167   1.14538   0.00000  Uiso   1.00
H6103  H     1.11992   0.34044   0.97987   0.00000  Uiso   1.00
C6104  C     1.15794   0.37526   1.06413   0.00000  Uiso   1.00
H6105  H     0.92571   0.23410   1.06185   0.00000  Uiso   1.00
C6106  C     1.13209   0.31741   1.19339   0.00000  Uiso   1.00
O6107  O     1.18881   0.45760   1.17020   0.00000  Uiso   1.00
H6108  H     1.14676   0.32262   1.12792   0.00000  Uiso   1.00
C6109  C     0.90992   0.40959   1.14137   0.00000  Uiso   1.00
N6110  N     1.22160   0.38617   1.21872   0.00000  Uiso   1.00
C6111  C     1.08035   0.31992   1.18823   0.00000  Uiso   1.00
C6112  C     1.14436   0.44557   1.08540   0.00000  Uiso   1.00
H6113  H     1.12900   0.27223   1.16534   0.00000  Uiso   1.00
O6114  O     1.14528   0.41761   1.08580   0.00000  Uiso   1.00
C6115  C     1.15739   0.31148   1.04289   0.00000  Uiso   1.00
H6116  H     1.14616   0.33491   1.20100   0.00000  Uiso   1.00
C6117  C     1.21493   0.33766   1.08790   0.00000  Uiso   1.00
H6118  H     1.20173   0.41527   1.01091   0.00000  Uiso   1.00
O6119  O     0.93605   0.40728   1.19179   0.00000  Uiso   1.00
N6120  N     0.90194   0.43040   1.13322   0.00000  Uiso   1.00
C6121  C     0.91258   0.28899   1.08900   0.00000  Uiso   1.00
C6122  C     0.93719   0.35659   1.19022   0.00000  Uiso   1.00
H6123  H     1.16846   0.26253   1.07296   0.00000  Uiso   1.00
O6124  O     1.18080   0.35752   1.15248   0.00000  Uiso   1.00
H6125  H     1.10716   0.25767   1.18975   0.00000  Uiso   1.00
C6126  C     1.20883   0.35694   1.01150   0.00000  Uiso   1.00
H6127  H     0.90343   0.22634   1.03185   0.00000  Uiso   1.00
H6128  H     1.13119   0.31953   1.17053   0.00000  Uiso   1.00
H6129  H     1.16284   0.29438   1.02915   0.00000  Uiso   1.00
C6130  C     1.17489   0.36190   1.04540   0.00000  Uiso   1.00
C6131  C     0.93053   0.27775   1.02528   0.00000  Uiso   1.00
C6132  C     0.90904   0.31166   1.10672   0.00000  Uiso   1.00
C6133  C     0.89876   0.33619   1.09719   0.00000  Uiso   1.00
O6134  O     0.91939   0.31019   1.13334   0.00000  Uiso   1.00
C6135  C     1.17626   0.25499   1.19834   0.00000  Uiso   1.00
H6136  H     0.94850   0.27748   1.03968   0.00000  Uiso   1.00
C6137  C     0.93649   0.30755   1.18931   0.00000  Uiso   1.00
C6138  C     1.19500   0.29876   1.20923   0.00000  Uiso   1.00
H6139  H     0.93695   0.26296   1.00940   0.00000  Uiso   1.00
N6140  N     1.09902   0.43190   1.13855   0.00000  Uiso   1.00
C6141  C     0.90676   0.24109   1.05003   0.00000  Uiso   1.00
H6142  H     1.08239   0.33261   1.16964   0.00000  Uiso   1.00
N6143  N     1.13800   0.41246   1.18568   0.00000  Uiso   1.00
C6144  C     1.19287   0.37626   1.02837   0.00000  Uiso   1.00
C6145  C     1.18671   0.34148   1.12936   0.00000  Uiso   1.00
H6146  H     1.07081   0.43776   0.99702   0.00000  Uiso   1.00
C6147  C     1.14809   0.27193   1.07378   0.00000  Uiso   1.00
H6148  H     0.88988   0.26681   1.17906   0.00000  Uiso   1.00
H6149  H     1.14607   0.36393   1.07850   0.00000  Uiso   1.00
C6150  C     0.93183   0.33226   1.17649   0.00000  Uiso   1.00
H6151  H     1.07102   0.34123   0.98205   0.00000  Uiso   1.00
C6152  C     1.11947   0.31282   1.07668   0.00000  Uiso   1.00
C6153  C     1.11357   0.44341   1.12369   0.00000  Uiso   1.00
H6154  H     1.11829   0.33450   1.07301   0.00000  Uiso   1.00
C6155  C     1.18653   0.40770   1.16613   0.00000  Uiso   1.00
C6156  C     0.91936   0.38321   1.15181   0.00000  Uiso   1.00
C6157  C     1.15925   0.46009   1.06422   0.00000  Uiso   1.00
H6158  H     1.10496   0.37127   1.20877   0.00000  Uiso   1.00
C6159  C     0.90412   0.27063   1.03964   0.00000  Uiso   1.00
C6160  C     1.18286   0.33044   1.04580   0.00000  Uiso   1.00
H6161  H     1.08428   0.24016   1.01274   0.00000  Uiso   1.00
C6162  C     1.19265   0.32567   1.07530   0.00000  Uiso   1.00
C6163  C     1.16994   0.31556   1.09068   0.00000  Uiso   1.00
C6164  C     1.14061   0.28842   1.20506   0.00000  Uiso   1.00
H6165  H     1.17714   0.34964   0.98124   0.00000  Uiso   1.00
H6166  H     1.10709   0.30420   1.06076   0.00000  Uiso   1.00
H6167  H     1.13439   0.26391   1.05597   0.00000  Uiso   1.00
H6168  H     0.89497   0.33976   1.01296   0.00000  Uiso   1.00
C6169  C     0.91438   0.35903   1.13760   0.00000  Uiso   1.00
C6170  C     1.20006   0.43211   1.15937   0.00000  Uiso   1.00
C6171  C     1.14920   0.24072   1.18996   0.00000  Uiso   1.00
H6172  H     1.11213   0.30646   1.09739   0.00000  Uiso   1.00
C6173  C     1.10181   0.35331   1.22159   0.00000  Uiso   1.00
C6174  C     1.16625   0.32532   1.11680   0.00000  Uiso   1.00
C6175  C     1.19510   0.38239   1.15318   0.00000  Uiso   1.00
N6176  N     0.94142   0.28682   1.20079   0.00000  Uiso   1.00
H6177  H     1.10822   0.46548   1.02929   0.00000  Uiso   1.00
H6178  H     0.92944   0.29938   1.01547   0.00000  Uiso   1.00
C6179  C     1.20732   0.32875   1.02510   0.00000  Uiso   1.00
H6180  H     1.05978   0.32514   1.19471   0.00000  Uiso   1.00
C6181  C     1.19905   0.35429   0.98144   0.00000  Uiso   1.00
C6182  C     1.21170   0.34571   1.11480   0.00000  Uiso   1.00
C6183  C     1.13059   0.45914   1.10571   0.00000  Uiso   1.00
C6184  C     0.90083   0.29027   1.06189   0.00000  Uiso   1.00
C6185  C     1.20298   0.24498   1.19588   0.00000  Uiso   1.00
H6186  H     1.20172   0.31151   1.01117   0.00000  Uiso   1.00
C6187  C     1.10390   0.32367   1.20859   0.00000  Uiso   1.00
O6188  O     0.94969   0.35461   1.21713   0.00000  Uiso   1.00
C6189  C     1.08180   0.44543   0.97848   0.00000  Uiso   1.00
C6190  C     1.12621   0.46811   0.97605   0.00000  Uiso   1.00
C6191  C     1.15300   0.22821   1.16117   0.00000  Uiso   1.00
H6192  H     1.11378   0.25507   0.97453   0.00000  Uiso   1.00
C6193  C     1.22068   0.38457   1.13832   0.00000  Uiso   1.00
H6194  H     1.10700   0.47255   1.22227   0.00000  Uiso   1.00
H6195  H     1.21086   0.33660   0.97375   0.00000  Uiso   1.00
H6196  H     1.22095   0.48485   0.44844   0.00000  Uiso   1.00
C6197  C     0.92726   0.55508   0.41368   0.00000  Uiso   1.00
C6198  C     0.96599   0.57311   0.38946   0.00000  Uiso   1.00
C6199  C     0.96308   0.48290   0.37445   0.00000  Uiso   1.00
O6200  O     0.94984   0.57320   0.41369   0.00000  Uiso   1.00
H6201  H     0.97214   0.54195   0.32686   0.00000  Uiso   1.00
C6202  C     0.97647   0.55444   0.34478   0.00000  Uiso   1.00
H6203  H     0.90266   0.60456   0.38819   0.00000  Uiso   1.00
H6204  H     1.11099   0.63427   0.47233   0.00000  Uiso   1.00
H6205  H     0.94196   0.60045   0.33058   0.00000  Uiso   1.00
H6206  H     1.02843   0.52582   0.31349   0.00000  Uiso   1.00
N6207  N     1.15318   0.63807   0.30050   0.00000  Uiso   1.00
C6208  C     1.09395   0.61301   0.40213   0.00000  Uiso   1.00
H6209  H     1.07616   0.57796   0.37137   0.00000  Uiso   1.00
H6210  H     1.16717   0.58048   0.45710   0.00000  Uiso   1.00
H6211  H     1.06057   0.68142   0.23326   0.00000  Uiso   1.00
H6212  H     1.06603   0.48923   0.29469   0.00000  Uiso   1.00
C6213  C     1.00484   0.49999   0.47148   0.00000  Uiso   1.00
H6214  H     1.20871   0.70760   0.23816   0.00000  Uiso   1.00
C6215  C     1.20010   0.69693   0.44332   0.00000  Uiso   1.00
H6216  H     1.00610   0.64910   0.34149   0.00000  Uiso   1.00
H6217  H     1.15882   0.62139   0.25334   0.00000  Uiso   1.00
H6218  H     0.89435   0.58214   0.27903   0.00000  Uiso   1.00
H6219  H     0.91691   0.63777   0.39557   0.00000  Uiso   1.00
H6220  H     1.03724   0.58171   0.43010   0.00000  Uiso   1.00
H6221  H     0.89708   0.67459   0.41782   0.00000  Uiso   1.00
H6222  H     0.90656   0.66925   0.33382   0.00000  Uiso   1.00
C6223  C     0.91420   0.55179   0.43922   0.00000  Uiso   1.00
C6224  C     1.04034   0.54321   0.32084   0.00000  Uiso   1.00
H6225  H     1.05213   0.51565   0.26249   0.00000  Uiso   1.00
N6226  N     0.89778   0.71404   0.39563   0.00000  Uiso   1.00
H6227  H     0.91388   0.63722   0.26785   0.00000  Uiso   1.00
C6228  C     0.89100   0.53509   0.44165   0.00000  Uiso   1.00
H6229  H     0.99323   0.59337   0.29318   0.00000  Uiso   1.00
C6230  C     1.03256   0.67900   0.39859   0.00000  Uiso   1.00
C6231  C     1.16239   0.62899   0.23174   0.00000  Uiso   1.00
H6232  H     1.21405   0.67048   0.26024   0.00000  Uiso   1.00
C6233  C     1.17517   0.67900   0.22791   0.00000  Uiso   1.00
H6234  H     0.90829   0.69065   0.25896   0.00000  Uiso   1.00
H6235  H     1.12193   0.65795   0.26179   0.00000  Uiso   1.00
C6236  C     1.06429   0.60488   0.40249   0.00000  Uiso   1.00
H6237  H     1.02518   0.58454   0.28171   0.00000  Uiso   1.00
C6238  C     1.21335   0.71895   0.42989   0.00000  Uiso   1.00
C6239  C     0.99082   0.48144   0.41882   0.00000  Uiso   1.00
C6240  C     1.15611   0.71815   0.43287   0.00000  Uiso   1.00
H6241  H     1.02591   0.61392   0.32190   0.00000  Uiso   1.00
H6242  H     0.99782   0.55677   0.28446   0.00000  Uiso   1.00
C6243  C     1.13324   0.49302   0.29303   0.00000  Uiso   1.00
N6244  N     0.93659   0.49071   0.44668   0.00000  Uiso   1.00
C6245  C     1.03355   0.62841   0.37149   0.00000  Uiso   1.00
C6246  C     1.05454   0.59480   0.43225   0.00000  Uiso   1.00
H6247  H     0.99642   0.60220   0.40678   0.00000  Uiso   1.00
H6248  H     1.04688   0.56575   0.39190   0.00000  Uiso   1.00
C6249  C     1.00036   0.56968   0.34412   0.00000  Uiso   1.00
C6250  C     1.00667   0.58675   0.36642   0.00000  Uiso   1.00
C6251  C     1.04779   0.63134   0.39581   0.00000  Uiso   1.00
C6252  C     0.98953   0.58818   0.39027   0.00000  Uiso   1.00
C6253  C     0.89803   0.62727   0.38744   0.00000  Uiso   1.00
C6254  C     1.05664   0.58441   0.38085   0.00000  Uiso   1.00
C6255  C     0.89207   0.52816   0.39275   0.00000  Uiso   1.00
C6256  C     1.03433   0.59916   0.36264   0.00000  Uiso   1.00
H6257  H     1.04742   0.61239   0.44623   0.00000  Uiso   1.00
C6258  C     1.16949   0.59765   0.44332   0.00000  Uiso   1.00
H6259  H     1.10678   0.59687   0.41248   0.00000  Uiso   1.00
H6260  H     1.20138   0.59571   0.25625   0.00000  Uiso   1.00
C6261  C     1.11327   0.49151   0.27171   0.00000  Uiso   1.00
H6262  H     1.01842   0.48516   0.37369   0.00000  Uiso   1.00
H6263  H     1.00792   0.65961   0.26001   0.00000  Uiso   1.00
H6264  H     1.21414   0.67925   0.44934   0.00000  Uiso   1.00
C6265  C     1.12451   0.68389   0.45277   0.00000  Uiso   1.00
C6266  C     0.94144   0.61549   0.31180   0.00000  Uiso   1.00
H6267  H     1.11350   0.68158   0.47194   0.00000  Uiso   1.00
H6268  H     1.16330   0.66327   0.39573   0.00000  Uiso   1.00
H6269  H     1.10938   0.70898   0.40140   0.00000  Uiso   1.00
C6270  C     1.16345   0.54294   0.33470   0.00000  Uiso   1.00
C6271  C     1.18743   0.64987   0.23044   0.00000  Uiso   1.00
H6272  H     0.93659   0.70891   0.24828   0.00000  Uiso   1.00
C6273  C     1.01836   0.67570   0.37354   0.00000  Uiso   1.00
H6274  H     1.05805   0.59521   0.32469   0.00000  Uiso   1.00
O6275  O     1.00398   0.69723   0.36162   0.00000  Uiso   1.00
N6276  N     1.12406   0.68742   0.36028   0.00000  Uiso   1.00
H6277  H     1.04290   0.64496   0.26315   0.00000  Uiso   1.00
C6278  C     0.91722   0.70137   0.24088   0.00000  Uiso   1.00
O6279  O     1.19546   0.68244   0.34700   0.00000  Uiso   1.00
C6280  C     1.11371   0.64709   0.24396   0.00000  Uiso   1.00
H6281  H     1.09831   0.63192   0.41505   0.00000  Uiso   1.00
O6282  O     0.93224   0.54439   0.36448   0.00000  Uiso   1.00
H6283  H     1.06962   0.58209   0.44325   0.00000  Uiso   1.00
H6284  H     1.04386   0.50820   0.22763   0.00000  Uiso   1.00
C6285  C     1.12658   0.71401   0.44286   0.00000  Uiso   1.00
C6286  C     1.10855   0.51567   0.25617   0.00000  Uiso   1.00
C6287  C     1.02349   0.64579   0.25162   0.00000  Uiso   1.00
C6288  C     0.99350   0.50966   0.42249   0.00000  Uiso   1.00
C6289  C     0.99829   0.51908   0.44960   0.00000  Uiso   1.00
O6290  O     1.17560   0.62048   0.37014   0.00000  Uiso   1.00
H6291  H     0.94786   0.48550   0.30268   0.00000  Uiso   1.00
C6292  C     0.92510   0.48102   0.46589   0.00000  Uiso   1.00
C6293  C     1.17260   0.62027   0.39850   0.00000  Uiso   1.00
C6294  C     1.04700   0.65608   0.40879   0.00000  Uiso   1.00
H6295  H     1.09641   0.65938   0.23463   0.00000  Uiso   1.00
H6296  H     0.94117   0.60199   0.29305   0.00000  Uiso   1.00
C6297  C     0.91330   0.63011   0.31335   0.00000  Uiso   1.00
C6298  C     1.16003   0.64703   0.43782   0.00000  Uiso   1.00
C6299  C     0.90906   0.64729   0.28742   0.00000  Uiso   1.00
H6300  H     1.10669   0.62754   0.25054   0.00000  Uiso   1.00
O6301  O     1.15071   0.56761   0.29224   0.00000  Uiso   1.00
C6302  C     0.91213   0.64818   0.33930   0.00000  Uiso   1.00
H6303  H     1.17615   0.49039   0.46148   0.00000  Uiso   1.00
H6304  H     1.11493   0.56053   0.25346   0.00000  Uiso   1.00
H6305  H     0.94563   0.49083   0.38621   0.00000  Uiso   1.00
C6306  C     1.14070   0.70061   0.34888   0.00000  Uiso   1.00
C6307  C     1.16517   0.64523   0.41023   0.00000  Uiso   1.00
H6308  H     1.06514   0.47821   0.34038   0.00000  Uiso   1.00
H6309  H     1.05779   0.54689   0.30714   0.00000  Uiso   1.00
C6310  C     1.13930   0.54185   0.28544   0.00000  Uiso   1.00
H6311  H     1.19311   0.64602   0.27464   0.00000  Uiso   1.00
O6312  O     1.03332   0.70382   0.41313   0.00000  Uiso   1.00
C6313  C     1.12174   0.54056   0.26308   0.00000  Uiso   1.00
C6314  C     1.01431   0.71696   0.24056   0.00000  Uiso   1.00
H6315  H     1.04716   0.53830   0.34163   0.00000  Uiso   1.00
C6316  C     1.16361   0.62310   0.45367   0.00000  Uiso   1.00
C6317  C     1.20482   0.71426   0.31005   0.00000  Uiso   1.00
O6318  O     1.18280   0.57244   0.40151   0.00000  Uiso   1.00
C6319  C     0.95747   0.55703   0.36638   0.00000  Uiso   1.00
C6320  C     1.01791   0.65086   0.36057   0.00000  Uiso   1.00
C6321  C     1.17106   0.69590   0.44261   0.00000  Uiso   1.00
C6322  C     1.16348   0.59332   0.33145   0.00000  Uiso   1.00
H6323  H     0.95967   0.62953   0.31215   0.00000  Uiso   1.00
C6324  C     1.15728   0.61794   0.31431   0.00000  Uiso   1.00
C6325  C     1.20457   0.65055   0.25698   0.00000  Uiso   1.00
C6326  C     1.17637   0.57108   0.37356   0.00000  Uiso   1.00
C6327  C     0.99045   0.60347   0.46942   0.00000  Uiso   1.00
C6328  C     0.91833   0.54196   0.39054   0.00000  Uiso   1.00
C6329  C     1.15959   0.56743   0.31941   0.00000  Uiso   1.00
O6330  O     1.16109   0.51707   0.32438   0.00000  Uiso   1.00
C6331  C     1.02199   0.56964   0.32135   0.00000  Uiso   1.00
H6332  H     1.08396   0.71841   0.42341   0.00000  Uiso   1.00
C6333  C     1.17601   0.59630   0.41470   0.00000  Uiso   1.00
C6334  C     1.17312   0.54612   0.36133   0.00000  Uiso   1.00
C6335  C     1.18644   0.70461   0.33000   0.00000  Uiso   1.00
H6336  H     1.01517   0.62403   0.25198   0.00000  Uiso   1.00
H6337  H     1.01605   0.70460   0.25923   0.00000  Uiso   1.00
C6338  C     1.18760   0.70482   0.22885   0.00000  Uiso   1.00
C6339  C     1.00706   0.57560   0.29339   0.00000  Uiso   1.00
H6340  H     1.11243   0.67175   0.43795   0.00000  Uiso   1.00
H6341  H     1.10187   0.61955   0.38225   0.00000  Uiso   1.00
H6342  H     1.05686   0.65991   0.42984   0.00000  Uiso   1.00
H6343  H     0.92252   0.66426   0.28734   0.00000  Uiso   1.00
C6344  C     1.14526   0.51704   0.30068   0.00000  Uiso   1.00
H6345  H     0.99340   0.52497   0.40477   0.00000  Uiso   1.00
C6346  C     1.15394   0.67323   0.45525   0.00000  Uiso   1.00
N6347  N     0.98508   0.61925   0.45313   0.00000  Uiso   1.00
C6348  C     1.18388   0.52429   0.37545   0.00000  Uiso   1.00
C6349  C     1.03619   0.59640   0.33108   0.00000  Uiso   1.00
H6350  H     0.93106   0.64728   0.35109   0.00000  Uiso   1.00
C6351  C     1.17156   0.59529   0.35804   0.00000  Uiso   1.00
O6352  O     0.99776   0.54770   0.45480   0.00000  Uiso   1.00
C6353  C     0.89109   0.60738   0.31633   0.00000  Uiso   1.00
H6354  H     0.90482   0.64833   0.43960   0.00000  Uiso   1.00
C6355  C     1.16056   0.71544   0.33447   0.00000  Uiso   1.00
N6356  N     1.19430   0.50627   0.38744   0.00000  Uiso   1.00
C6357  C     0.92415   0.56636   0.46227   0.00000  Uiso   1.00
H6358  H     0.97486   0.49884   0.36357   0.00000  Uiso   1.00
H6359  H     0.89181   0.71858   0.29426   0.00000  Uiso   1.00
C6360  C     1.08945   0.47749   0.23501   0.00000  Uiso   1.00
C6361  C     1.08711   0.50894   0.23353   0.00000  Uiso   1.00
C6362  C     0.88974   0.63515   0.35690   0.00000  Uiso   1.00
H6363  H     1.05590   0.54154   0.23862   0.00000  Uiso   1.00
C6364  C     1.05766   0.51920   0.24142   0.00000  Uiso   1.00
H6365  H     1.22109   0.64797   0.37986   0.00000  Uiso   1.00
C6366  C     1.10691   0.72151   0.42115   0.00000  Uiso   1.00
H6367  H     0.94967   0.48209   0.26705   0.00000  Uiso   1.00
H6368  H     1.13661   0.47476   0.30672   0.00000  Uiso   1.00
H6369  H     0.99125   0.71815   0.23859   0.00000  Uiso   1.00
H6370  H     1.04374   0.60750   0.60580   0.00000  Uiso   1.00
C6371  C     1.02993   0.62117   0.59278   0.00000  Uiso   1.00
N6372  N     0.93224   0.57753   0.48110   0.00000  Uiso   1.00
C6373  C     1.21651   0.59001   0.61730   0.00000  Uiso   1.00
C6374  C     1.18321   0.48791   0.53210   0.00000  Uiso   1.00
H6375  H     1.17789   0.51759   0.60559   0.00000  Uiso   1.00
C6376  C     1.07856   0.49178   0.67305   0.00000  Uiso   1.00
H6377  H     1.13710   0.56018   0.64294   0.00000  Uiso   1.00
H6378  H     1.16436   0.62407   0.52542   0.00000  Uiso   1.00
C6379  C     0.96422   0.54644   0.67645   0.00000  Uiso   1.00
C6380  C     1.00384   0.55694   0.48198   0.00000  Uiso   1.00
C6381  C     1.19244   0.48289   0.50255   0.00000  Uiso   1.00
H6382  H     0.95212   0.68742   0.62749   0.00000  Uiso   1.00
H6383  H     1.00312   0.69374   0.64776   0.00000  Uiso   1.00
C6384  C     0.98056   0.71111   0.59111   0.00000  Uiso   1.00
H6385  H     1.14336   0.49937   0.65421   0.00000  Uiso   1.00
O6386  O     0.91362   0.49383   0.69956   0.00000  Uiso   1.00
O6387  O     1.16949   0.54286   0.71379   0.00000  Uiso   1.00
C6388  C     1.03464   0.52981   0.67608   0.00000  Uiso   1.00
C6389  C     1.20574   0.61455   0.60032   0.00000  Uiso   1.00
C6390  C     1.12439   0.62549   0.48812   0.00000  Uiso   1.00
N6391  N     0.96551   0.59064   0.64694   0.00000  Uiso   1.00
H6392  H     0.96070   0.65151   0.62636   0.00000  Uiso   1.00
C6393  C     1.03227   0.66251   0.62659   0.00000  Uiso   1.00
H6394  H     1.05528   0.55353   0.64726   0.00000  Uiso   1.00
C6395  C     1.08618   0.65436   0.55576   0.00000  Uiso   1.00
H6396  H     1.11909   0.63324   0.50850   0.00000  Uiso   1.00
H6397  H     0.92037   0.70424   0.70742   0.00000  Uiso   1.00
C6398  C     1.11557   0.55368   0.65131   0.00000  Uiso   1.00
H6399  H     1.10992   0.49472   0.60939   0.00000  Uiso   1.00
H6400  H     1.15174   0.67351   0.50040   0.00000  Uiso   1.00
C6401  C     1.13473   0.66972   0.56117   0.00000  Uiso   1.00
H6402  H     0.94833   0.66830   0.59494   0.00000  Uiso   1.00
H6403  H     1.19691   0.48119   0.54808   0.00000  Uiso   1.00
N6404  N     1.18716   0.72132   0.68711   0.00000  Uiso   1.00
H6405  H     1.00762   0.49006   0.63209   0.00000  Uiso   1.00
H6406  H     1.11006   0.65667   0.67258   0.00000  Uiso   1.00
H6407  H     1.19117   0.51877   0.67466   0.00000  Uiso   1.00
C6408  C     1.12430   0.50252   0.66436   0.00000  Uiso   1.00
H6409  H     1.02363   0.70846   0.62271   0.00000  Uiso   1.00
C6410  C     1.01281   0.62710   0.69422   0.00000  Uiso   1.00
O6411  O     1.18301   0.68520   0.55775   0.00000  Uiso   1.00
H6412  H     1.16961   0.59433   0.50650   0.00000  Uiso   1.00
N6413  N     1.03770   0.51601   0.56372   0.00000  Uiso   1.00
C6414  C     1.09663   0.63175   0.62830   0.00000  Uiso   1.00
C6415  C     1.17912   0.61841   0.59312   0.00000  Uiso   1.00
H6416  H     0.98887   0.64392   0.66183   0.00000  Uiso   1.00
C6417  C     1.03976   0.61822   0.70123   0.00000  Uiso   1.00
H6418  H     1.10987   0.62465   0.64448   0.00000  Uiso   1.00
C6419  C     1.21660   0.56339   0.60048   0.00000  Uiso   1.00
H6420  H     0.97338   0.71027   0.68463   0.00000  Uiso   1.00
C6421  C     0.93877   0.50940   0.69756   0.00000  Uiso   1.00
C6422  C     1.17755   0.55769   0.69050   0.00000  Uiso   1.00
C6423  C     1.05534   0.48494   0.68847   0.00000  Uiso   1.00
H6424  H     0.98347   0.66846   0.54892   0.00000  Uiso   1.00
C6425  C     0.93972   0.53513   0.68335   0.00000  Uiso   1.00
H6426  H     1.11712   0.67963   0.64421   0.00000  Uiso   1.00
C6427  C     1.10772   0.52334   0.64608   0.00000  Uiso   1.00
C6428  C     1.01236   0.68862   0.62760   0.00000  Uiso   1.00
H6429  H     1.07241   0.67449   0.60462   0.00000  Uiso   1.00
H6430  H     1.21132   0.50801   0.58960   0.00000  Uiso   1.00
C6431  C     1.15413   0.69041   0.55487   0.00000  Uiso   1.00
O6432  O     1.14267   0.64427   0.57049   0.00000  Uiso   1.00
H6433  H     1.15561   0.50297   0.48849   0.00000  Uiso   1.00
C6434  C     0.96293   0.49724   0.70647   0.00000  Uiso   1.00
H6435  H     1.05977   0.69184   0.63614   0.00000  Uiso   1.00
C6436  C     1.07950   0.65394   0.64090   0.00000  Uiso   1.00
O6437  O     0.91547   0.54797   0.67279   0.00000  Uiso   1.00
H6438  H     1.11041   0.64086   0.61202   0.00000  Uiso   1.00
C6439  C     0.98854   0.53554   0.68443   0.00000  Uiso   1.00
C6440  C     1.08003   0.51725   0.65928   0.00000  Uiso   1.00
C6441  C     1.15543   0.63073   0.48250   0.00000  Uiso   1.00
O6442  O     0.99052   0.61832   0.70912   0.00000  Uiso   1.00
C6443  C     1.06253   0.62685   0.68571   0.00000  Uiso   1.00
O6444  O     1.15636   0.60061   0.70372   0.00000  Uiso   1.00
C6445  C     1.05853   0.64109   0.66203   0.00000  Uiso   1.00
H6446  H     1.08316   0.61975   0.69165   0.00000  Uiso   1.00
N6447  N     1.07026   0.63559   0.55483   0.00000  Uiso   1.00
C6448  C     1.17217   0.61626   0.50523   0.00000  Uiso   1.00
H6449  H     1.18350   0.51039   0.53589   0.00000  Uiso   1.00
H6450  H     1.12678   0.51367   0.68413   0.00000  Uiso   1.00
C6451  C     1.20069   0.51505   0.61009   0.00000  Uiso   1.00
C6452  C     1.18387   0.59757   0.66109   0.00000  Uiso   1.00
C6453  C     1.00920   0.64186   0.66941   0.00000  Uiso   1.00
C6454  C     1.10936   0.51798   0.61552   0.00000  Uiso   1.00
C6455  C     1.17182   0.58543   0.68480   0.00000  Uiso   1.00
C6456  C     1.19094   0.54143   0.67108   0.00000  Uiso   1.00
C6457  C     1.10035   0.66976   0.65758   0.00000  Uiso   1.00
C6458  C     1.06163   0.67303   0.62467   0.00000  Uiso   1.00
C6459  C     1.10626   0.67590   0.55726   0.00000  Uiso   1.00
C6460  C     1.16996   0.64215   0.57830   0.00000  Uiso   1.00
O6461  O     1.07051   0.71110   0.55613   0.00000  Uiso   1.00
H6462  H     1.09311   0.52750   0.60327   0.00000  Uiso   1.00
C6463  C     1.19062   0.66085   0.57077   0.00000  Uiso   1.00
O6464  O     1.01369   0.54911   0.67811   0.00000  Uiso   1.00
C6465  C     1.00288   0.66182   0.58646   0.00000  Uiso   1.00
C6466  C     0.99637   0.65399   0.56031   0.00000  Uiso   1.00
C6467  C     0.89015   0.68901   0.59463   0.00000  Uiso   1.00
C6468  C     1.20023   0.58125   0.64328   0.00000  Uiso   1.00
C6469  C     0.96232   0.67131   0.61398   0.00000  Uiso   1.00
C6470  C     1.01435   0.53727   0.50144   0.00000  Uiso   1.00
C6471  C     1.01835   0.57633   0.53457   0.00000  Uiso   1.00
O6472  O     1.01516   0.50884   0.49571   0.00000  Uiso   1.00
C6473  C     1.02256   0.54891   0.52700   0.00000  Uiso   1.00
C6474  C     1.03160   0.53102   0.54642   0.00000  Uiso   1.00
C6475  C     0.99012   0.68380   0.60577   0.00000  Uiso   1.00
C6476  C     0.99904   0.58394   0.48932   0.00000  Uiso   1.00
C6477  C     1.00480   0.59375   0.51541   0.00000  Uiso   1.00
H6478  H     0.89382   0.68097   0.61480   0.00000  Uiso   1.00
C6479  C     1.03192   0.64776   0.65374   0.00000  Uiso   1.00
O6480  O     1.02579   0.58423   0.56085   0.00000  Uiso   1.00
C6481  C     1.09885   0.70338   0.55205   0.00000  Uiso   1.00
C6482  C     1.01902   0.61031   0.56784   0.00000  Uiso   1.00
O6483  O     0.99908   0.62181   0.52243   0.00000  Uiso   1.00
C6484  C     1.00302   0.62848   0.55094   0.00000  Uiso   1.00
H6485  H     1.09222   0.68758   0.67096   0.00000  Uiso   1.00
H6486  H     1.18260   0.62127   0.65813   0.00000  Uiso   1.00
O6487  O     1.01280   0.49662   0.70764   0.00000  Uiso   1.00
H6488  H     1.16282   0.60239   0.59579   0.00000  Uiso   1.00
C6489  C     0.96503   0.57063   0.66028   0.00000  Uiso   1.00
C6490  C     1.02251   0.64794   0.60172   0.00000  Uiso   1.00
H6491  H     1.18292   0.66241   0.48760   0.00000  Uiso   1.00
H6492  H     1.08573   0.61409   0.62096   0.00000  Uiso   1.00
H6493  H     1.18621   0.51887   0.47585   0.00000  Uiso   1.00
C6494  C     1.03463   0.50435   0.69091   0.00000  Uiso   1.00
H6495  H     1.11244   0.56154   0.67213   0.00000  Uiso   1.00
C6496  C     1.05727   0.53514   0.66001   0.00000  Uiso   1.00
C6497  C     1.17669   0.49958   0.48119   0.00000  Uiso   1.00
C6498  C     0.98773   0.51155   0.70112   0.00000  Uiso   1.00
C6499  C     1.20183   0.55320   0.64767   0.00000  Uiso   1.00
H6500  H     1.12402   0.60261   0.48978   0.00000  Uiso   1.00
H6501  H     1.10191   0.56749   0.63936   0.00000  Uiso   1.00
H6502  H     1.19992   0.49665   0.62392   0.00000  Uiso   1.00
H6503  H     1.19344   0.62062   0.50172   0.00000  Uiso   1.00
H6504  H     1.16117   0.48158   0.53545   0.00000  Uiso   1.00
H6505  H     1.12842   0.52778   0.60827   0.00000  Uiso   1.00
C6506  C     1.16176   0.66175   0.48364   0.00000  Uiso   1.00
C6507  C     1.10665   0.47660   0.66978   0.00000  Uiso   1.00
C6508  C     1.11849   0.72147   0.54334   0.00000  Uiso   1.00
H6509  H     1.19665   0.56336   0.58839   0.00000  Uiso   1.00
H6510  H     1.21749   0.47476   0.66326   0.00000  Uiso   1.00
H6511  H     0.90948   0.69682   0.58823   0.00000  Uiso   1.00
C6512  C     0.89056   0.50911   0.69376   0.00000  Uiso   1.00
C6513  C     1.21874   0.65513   0.57610   0.00000  Uiso   1.00
C6514  C     1.14605   0.71496   0.54350   0.00000  Uiso   1.00
C6515  C     1.21631   0.53992   0.62238   0.00000  Uiso   1.00
H6516  H     0.96518   0.70483   0.57372   0.00000  Uiso   1.00
C6517  C     0.89245   0.53342   0.67839   0.00000  Uiso   1.00
H6518  H     1.17534   0.48385   0.69549   0.00000  Uiso   1.00
O6519  O     0.94980   0.47677   0.51791   0.00000  Uiso   1.00
H6520  H     1.02678   0.59440   0.86466   0.00000  Uiso   1.00
C6521  C     1.02370   0.61227   0.93362   0.00000  Uiso   1.00
C6522  C     0.93193   0.50023   0.81999   0.00000  Uiso   1.00
H6523  H     1.01398   0.62781   0.94435   0.00000  Uiso   1.00
O6524  O     1.20596   0.58713   0.89339   0.00000  Uiso   1.00
O6525  O     1.00285   0.54075   0.79388   0.00000  Uiso   1.00
O6526  O     1.10852   0.71091   0.76354   0.00000  Uiso   1.00
C6527  C     0.99965   0.56005   0.77200   0.00000  Uiso   1.00
O6528  O     1.19500   0.49774   0.96365   0.00000  Uiso   1.00
O6529  O     0.92143   0.71236   0.82974   0.00000  Uiso   1.00
C6530  C     1.09806   0.56547   0.86812   0.00000  Uiso   1.00
C6531  C     0.97237   0.58470   0.73977   0.00000  Uiso   1.00
C6532  C     0.99269   0.62123   0.89168   0.00000  Uiso   1.00
O6533  O     1.10209   0.69654   0.87241   0.00000  Uiso   1.00
H6534  H     0.98092   0.60354   0.88463   0.00000  Uiso   1.00
C6535  C     1.21027   0.67963   0.82999   0.00000  Uiso   1.00
H6536  H     1.10753   0.64499   0.87709   0.00000  Uiso   1.00
C6537  C     1.18746   0.65863   0.83456   0.00000  Uiso   1.00
C6538  C     1.17381   0.65888   0.86387   0.00000  Uiso   1.00
C6539  C     1.15611   0.55867   0.73304   0.00000  Uiso   1.00
C6540  C     0.90774   0.70314   0.85263   0.00000  Uiso   1.00
C6541  C     1.05522   0.68769   0.88731   0.00000  Uiso   1.00
C6542  C     1.07219   0.53236   0.89893   0.00000  Uiso   1.00
C6543  C     0.96361   0.48501   0.88634   0.00000  Uiso   1.00
C6544  C     0.90589   0.72193   0.80831   0.00000  Uiso   1.00
C6545  C     1.12761   0.58778   0.77245   0.00000  Uiso   1.00
C6546  C     1.12708   0.69544   0.78050   0.00000  Uiso   1.00
H6547  H     1.15400   0.68965   0.94379   0.00000  Uiso   1.00
C6548  C     1.06838   0.59921   0.88797   0.00000  Uiso   1.00
N6549  N     1.16865   0.49692   0.76971   0.00000  Uiso   1.00
H6550  H     1.03185   0.57308   0.89542   0.00000  Uiso   1.00
C6551  C     1.21444   0.60456   0.91383   0.00000  Uiso   1.00
C6552  C     1.13751   0.56084   0.77872   0.00000  Uiso   1.00
C6553  C     0.92480   0.63663   0.95407   0.00000  Uiso   1.00
H6554  H     1.06801   0.52581   0.92093   0.00000  Uiso   1.00
C6555  C     1.02126   0.59031   0.73673   0.00000  Uiso   1.00
C6556  C     1.07251   0.68705   0.78923   0.00000  Uiso   1.00
H6557  H     1.15781   0.58600   0.96104   0.00000  Uiso   1.00
C6558  C     0.95655   0.49572   0.83366   0.00000  Uiso   1.00
C6559  C     1.16085   0.51926   0.76505   0.00000  Uiso   1.00
H6560  H     1.10891   0.49231   0.72754   0.00000  Uiso   1.00
C6561  C     1.16509   0.67074   0.81501   0.00000  Uiso   1.00
O6562  O     1.06777   0.66177   0.96637   0.00000  Uiso   1.00
H6563  H     1.07148   0.58027   0.92958   0.00000  Uiso   1.00
H6564  H     1.19899   0.62711   0.80479   0.00000  Uiso   1.00
H6565  H     1.12492   0.52173   0.90046   0.00000  Uiso   1.00
C6566  C     1.14998   0.58670   0.72810   0.00000  Uiso   1.00
H6567  H     0.94372   0.71502   0.73593   0.00000  Uiso   1.00
H6568  H     0.98217   0.63332   0.90740   0.00000  Uiso   1.00
H6569  H     1.15435   0.64825   0.86482   0.00000  Uiso   1.00
C6570  C     1.06794   0.63138   0.88959   0.00000  Uiso   1.00
N6571  N     1.17506   0.52791   0.86757   0.00000  Uiso   1.00
F6572  F     0.99879   0.69852   0.79074   0.00000  Uiso   1.00
C6573  C     1.15114   0.54646   0.75890   0.00000  Uiso   1.00
H6574  H     0.99305   0.63714   0.87439   0.00000  Uiso   1.00
C6575  C     1.19471   0.54021   0.86288   0.00000  Uiso   1.00
O6576  O     1.10579   0.70624   0.95250   0.00000  Uiso   1.00
N6577  N     0.97411   0.68056   0.86960   0.00000  Uiso   1.00
C6578  C     1.03495   0.66886   0.89870   0.00000  Uiso   1.00
H6579  H     1.05436   0.53915   0.88891   0.00000  Uiso   1.00
C6580  C     1.08305   0.58983   0.86155   0.00000  Uiso   1.00
C6581  C     1.20113   0.63186   0.95480   0.00000  Uiso   1.00
N6582  N     1.07165   0.55408   0.76981   0.00000  Uiso   1.00
N6583  N     1.03122   0.64121   0.82492   0.00000  Uiso   1.00
H6584  H     1.18776   0.64629   0.87520   0.00000  Uiso   1.00
C6585  C     1.04910   0.56136   0.76477   0.00000  Uiso   1.00
C6586  C     1.22030   0.55607   0.85864   0.00000  Uiso   1.00
H6587  H     1.07916   0.51443   0.88696   0.00000  Uiso   1.00
H6588  H     0.99928   0.50665   0.83873   0.00000  Uiso   1.00
H6589  H     1.17057   0.67952   0.87412   0.00000  Uiso   1.00
C6590  C     0.98042   0.50868   0.82445   0.00000  Uiso   1.00
C6591  C     0.97448   0.56571   0.75963   0.00000  Uiso   1.00
H6592  H     0.95667   0.50608   0.88986   0.00000  Uiso   1.00
H6593  H     0.94696   0.63359   0.94947   0.00000  Uiso   1.00
C6594  C     1.02231   0.61501   0.90236   0.00000  Uiso   1.00
C6595  C     1.12230   0.62688   0.74230   0.00000  Uiso   1.00
C6596  C     1.17536   0.47778   0.96756   0.00000  Uiso   1.00
C6597  C     0.90923   0.68330   0.89816   0.00000  Uiso   1.00
C6598  C     0.97874   0.52851   0.80350   0.00000  Uiso   1.00
H6599  H     1.13651   0.55425   0.91305   0.00000  Uiso   1.00
C6600  C     0.92230   0.69182   0.87412   0.00000  Uiso   1.00
C6601  C     1.04470   0.68326   0.79460   0.00000  Uiso   1.00
C6602  C     1.04142   0.64047   0.89809   0.00000  Uiso   1.00
H6603  H     1.11466   0.53792   0.93451   0.00000  Uiso   1.00
H6604  H     1.21576   0.62247   0.83478   0.00000  Uiso   1.00
C6605  C     1.09379   0.55579   0.89823   0.00000  Uiso   1.00
H6606  H     0.96104   0.58496   0.96731   0.00000  Uiso   1.00
H6607  H     1.17359   0.61028   0.93040   0.00000  Uiso   1.00
C6608  C     1.03724   0.65988   0.81063   0.00000  Uiso   1.00
C6609  C     1.15474   0.70171   0.77968   0.00000  Uiso   1.00
C6610  C     1.08484   0.58233   0.91060   0.00000  Uiso   1.00
H6611  H     1.13151   0.64845   0.83241   0.00000  Uiso   1.00
H6612  H     0.91491   0.49328   0.87395   0.00000  Uiso   1.00
C6613  C     1.11751   0.67465   0.79900   0.00000  Uiso   1.00
C6614  C     1.19544   0.61471   0.93334   0.00000  Uiso   1.00
O6615  O     1.13487   0.54907   0.80513   0.00000  Uiso   1.00
O6616  O     1.08989   0.66978   0.80414   0.00000  Uiso   1.00
O6617  O     1.04731   0.71500   0.88481   0.00000  Uiso   1.00
C6618  C     1.13741   0.66269   0.81543   0.00000  Uiso   1.00
H6619  H     1.15915   0.71739   0.76463   0.00000  Uiso   1.00
H6620  H     1.07708   0.62085   0.83027   0.00000  Uiso   1.00
H6621  H     1.01205   0.59354   0.94066   0.00000  Uiso   1.00
C6622  C     1.10387   0.58765   0.81577   0.00000  Uiso   1.00
C6623  C     1.11416   0.68017   0.95894   0.00000  Uiso   1.00
O6624  O     0.95091   0.55114   0.76825   0.00000  Uiso   1.00
H6625  H     1.10467   0.59379   0.91421   0.00000  Uiso   1.00
C6626  C     0.95352   0.53417   0.79171   0.00000  Uiso   1.00
C6627  C     1.03611   0.59320   0.88506   0.00000  Uiso   1.00
C6628  C     1.08759   0.60173   0.83632   0.00000  Uiso   1.00
H6629  H     1.17949   0.61451   0.83310   0.00000  Uiso   1.00
H6630  H     1.12390   0.53407   0.85433   0.00000  Uiso   1.00
O6631  O     1.11012   0.60250   0.79214   0.00000  Uiso   1.00
H6632  H     0.91115   0.52906   0.79212   0.00000  Uiso   1.00
C6633  C     1.09589   0.65960   0.96778   0.00000  Uiso   1.00
C6634  C     0.91102   0.65509   0.93767   0.00000  Uiso   1.00
C6635  C     1.11716   0.56232   0.82148   0.00000  Uiso   1.00
C6636  C     1.17462   0.69044   0.79653   0.00000  Uiso   1.00
N6637  N     1.11540   0.64954   0.73767   0.00000  Uiso   1.00
C6638  C     1.13394   0.60109   0.74805   0.00000  Uiso   1.00
C6639  C     1.11176   0.55104   0.84737   0.00000  Uiso   1.00
C6640  C     1.02326   0.57080   0.75879   0.00000  Uiso   1.00
C6641  C     1.11865   0.54210   0.91209   0.00000  Uiso   1.00
C6642  C     0.93033   0.52116   0.80142   0.00000  Uiso   1.00
C6643  C     1.07871   0.71059   0.96319   0.00000  Uiso   1.00
C6644  C     0.95057   0.68631   0.87135   0.00000  Uiso   1.00
C6645  C     0.99501   0.59808   0.72850   0.00000  Uiso   1.00
C6646  C     1.08718   0.65066   0.88265   0.00000  Uiso   1.00
C6647  C     1.08153   0.67852   0.88099   0.00000  Uiso   1.00
C6648  C     1.19499   0.62819   0.82584   0.00000  Uiso   1.00
H6649  H     1.01350   0.67406   0.90592   0.00000  Uiso   1.00
H6650  H     1.04540   0.60892   0.94185   0.00000  Uiso   1.00
O6651  O     0.92596   0.66968   0.91901   0.00000  Uiso   1.00
C6652  C     1.14286   0.67478   0.95622   0.00000  Uiso   1.00
C6653  C     1.08125   0.70912   0.77323   0.00000  Uiso   1.00
C6654  C     1.20575   0.69797   0.80255   0.00000  Uiso   1.00
H6655  H     0.90516   0.48932   0.76663   0.00000  Uiso   1.00
H6656  H     1.21849   0.64854   0.76803   0.00000  Uiso   1.00
C6657  C     0.95305   0.47467   0.85769   0.00000  Uiso   1.00
H6658  H     1.09245   0.50029   0.94896   0.00000  Uiso   1.00
H6659  H     1.21318   0.69188   0.85068   0.00000  Uiso   1.00
N6660  N     1.09995   0.50069   0.82691   0.00000  Uiso   1.00
H6661  H     1.06321   0.49654   0.96816   0.00000  Uiso   1.00
C6662  C     1.02543   0.70190   0.78568   0.00000  Uiso   1.00
C6663  C     1.10175   0.47771   0.82297   0.00000  Uiso   1.00
O6664  O     1.04463   0.60164   0.72311   0.00000  Uiso   1.00
C6665  C     0.92031   0.47528   0.85934   0.00000  Uiso   1.00
C6666  C     1.21704   0.48733   0.94634   0.00000  Uiso   1.00
H6667  H     1.21708   0.49739   0.73618   0.00000  Uiso   1.00
C6668  C     1.06023   0.68949   0.97016   0.00000  Uiso   1.00
H6669  H     0.98603   0.48421   0.88745   0.00000  Uiso   1.00
H6670  H     0.92748   0.57155   0.95641   0.00000  Uiso   1.00
C6671  C     0.90938   0.48158   0.83136   0.00000  Uiso   1.00
C6672  C     0.94535   0.59035   0.73030   0.00000  Uiso   1.00
C6673  C     1.15464   0.65198   0.96998   0.00000  Uiso   1.00
C6674  C     1.08472   0.49758   0.97065   0.00000  Uiso   1.00
H6675  H     1.19982   0.68805   0.97059   0.00000  Uiso   1.00
C6676  C     1.03359   0.72246   0.76818   0.00000  Uiso   1.00
C6677  C     1.09313   0.72276   0.86597   0.00000  Uiso   1.00
N6678  N     0.92343   0.59445   0.72328   0.00000  Uiso   1.00
C6679  C     1.20983   0.64545   1.20919   0.00000  Uiso   1.00
C6680  C     0.99846   0.68652   1.20067   0.00000  Uiso   1.00
C6681  C     1.16911   0.50312   1.04266   0.00000  Uiso   1.00
C6682  C     1.17911   0.62724   1.00219   0.00000  Uiso   1.00
H6683  H     1.11564   0.51839   1.20194   0.00000  Uiso   1.00
H6684  H     1.18405   0.59114   1.18685   0.00000  Uiso   1.00
H6685  H     1.05900   0.60077   1.01384   0.00000  Uiso   1.00
C6686  C     1.13674   0.61133   1.02746   0.00000  Uiso   1.00
C6687  C     1.00803   0.63575   1.05359   0.00000  Uiso   1.00
C6688  C     0.91625   0.67122   1.14650   0.00000  Uiso   1.00
C6689  C     0.91603   0.64317   1.15577   0.00000  Uiso   1.00
H6690  H     1.19863   0.68194   1.00446   0.00000  Uiso   1.00
C6691  C     1.15857   0.56485   1.15008   0.00000  Uiso   1.00
O6692  O     0.93378   0.63316   1.17437   0.00000  Uiso   1.00
H6693  H     0.95753   0.62201   1.00800   0.00000  Uiso   1.00
C6694  C     1.20157   0.67063   0.98508   0.00000  Uiso   1.00
C6695  C     0.95578   0.65064   1.18335   0.00000  Uiso   1.00
C6696  C     1.04595   0.62783   1.20789   0.00000  Uiso   1.00
C6697  C     1.12708   0.70262   1.09497   0.00000  Uiso   1.00
H6698  H     1.01635   0.54697   1.09478   0.00000  Uiso   1.00
H6699  H     1.14546   0.50756   0.98344   0.00000  Uiso   1.00
H6700  H     1.05607   0.67227   1.03245   0.00000  Uiso   1.00
O6701  O     0.93566   0.69033   1.15807   0.00000  Uiso   1.00
H6702  H     1.18810   0.65976   1.17149   0.00000  Uiso   1.00
C6703  C     1.15590   0.48797   1.06364   0.00000  Uiso   1.00
H6704  H     1.01074   0.64505   1.07371   0.00000  Uiso   1.00
H6705  H     1.03566   0.54694   1.16850   0.00000  Uiso   1.00
N6706  N     1.16497   0.69855   1.15456   0.00000  Uiso   1.00
C6707  C     0.95621   0.67934   1.17466   0.00000  Uiso   1.00
H6708  H     1.20018   0.53820   1.08546   0.00000  Uiso   1.00
H6709  H     1.01726   0.58298   1.06560   0.00000  Uiso   1.00
C6710  C     1.13433   0.69840   1.20962   0.00000  Uiso   1.00
C6711  C     0.93807   0.61309   1.01484   0.00000  Uiso   1.00
H6712  H     1.13714   0.63133   1.03864   0.00000  Uiso   1.00
C6713  C     0.97638   0.69765   1.18571   0.00000  Uiso   1.00
O6714  O     1.10972   0.49940   1.12320   0.00000  Uiso   1.00
C6715  C     1.12779   0.48676   1.10545   0.00000  Uiso   1.00
H6716  H     1.19511   0.61028   1.00471   0.00000  Uiso   1.00
H6717  H     0.99229   0.62164   1.05277   0.00000  Uiso   1.00
C6718  C     0.89235   0.59913   1.15380   0.00000  Uiso   1.00
H6719  H     1.19720   0.56132   1.03322   0.00000  Uiso   1.00
C6720  C     1.09705   0.47905   1.01564   0.00000  Uiso   1.00
C6721  C     1.18705   0.50770   1.16636   0.00000  Uiso   1.00
C6722  C     1.18396   0.64589   0.97729   0.00000  Uiso   1.00
N6723  N     1.21597   0.69720   1.08132   0.00000  Uiso   1.00
H6724  H     1.06588   0.52154   1.14311   0.00000  Uiso   1.00
C6725  C     0.90471   0.70438   1.11145   0.00000  Uiso   1.00
H6726  H     1.16699   0.56336   1.20083   0.00000  Uiso   1.00
H6727  H     1.15256   0.55104   1.13402   0.00000  Uiso   1.00
H6728  H     0.92694   0.62701   1.02822   0.00000  Uiso   1.00
H6729  H     0.97899   0.61814   1.20576   0.00000  Uiso   1.00
C6730  C     1.21741   0.57482   1.07038   0.00000  Uiso   1.00
C6731  C     0.90154   0.67800   1.12299   0.00000  Uiso   1.00
C6732  C     0.89821   0.58399   1.00142   0.00000  Uiso   1.00
C6733  C     1.19550   0.53115   1.15321   0.00000  Uiso   1.00
H6734  H     1.10927   0.64522   1.18581   0.00000  Uiso   1.00
H6735  H     1.11983   0.61137   1.19592   0.00000  Uiso   1.00
C6736  C     0.92361   0.59828   0.99100   0.00000  Uiso   1.00
C6737  C     1.07729   0.53564   1.12903   0.00000  Uiso   1.00
C6738  C     1.00068   0.65818   1.20538   0.00000  Uiso   1.00
H6739  H     1.01770   0.52807   1.12640   0.00000  Uiso   1.00
C6740  C     1.19910   0.48149   1.15917   0.00000  Uiso   1.00
C6741  C     1.10025   0.52521   1.11497   0.00000  Uiso   1.00
C6742  C     1.18779   0.56071   1.15929   0.00000  Uiso   1.00
H6743  H     1.08174   0.51154   1.18933   0.00000  Uiso   1.00
H6744  H     1.14267   0.55892   1.16660   0.00000  Uiso   1.00
H6745  H     1.18042   0.56541   1.09512   0.00000  Uiso   1.00
C6746  C     1.06497   0.55904   1.11867   0.00000  Uiso   1.00
H6747  H     1.14717   0.59669   1.04075   0.00000  Uiso   1.00
C6748  C     1.15037   0.58488   0.98358   0.00000  Uiso   1.00
C6749  C     1.03447   0.61933   1.04623   0.00000  Uiso   1.00
C6750  C     1.03773   0.59252   1.06195   0.00000  Uiso   1.00
C6751  C     1.05431   0.59595   1.08857   0.00000  Uiso   1.00
H6752  H     1.04770   0.57831   1.04721   0.00000  Uiso   1.00
C6753  C     1.05823   0.63442   1.05870   0.00000  Uiso   1.00
C6754  C     1.07483   0.57197   1.09554   0.00000  Uiso   1.00
H6755  H     0.89406   0.56535   0.98745   0.00000  Uiso   1.00
C6756  C     1.20200   0.55877   1.09196   0.00000  Uiso   1.00
C6757  C     1.03030   0.72295   0.98972   0.00000  Uiso   1.00
C6758  C     1.06611   0.65923   1.04892   0.00000  Uiso   1.00
C6759  C     1.06913   0.62115   1.08227   0.00000  Uiso   1.00
C6760  C     1.04014   0.61245   1.01608   0.00000  Uiso   1.00
C6761  C     0.91206   0.62016   0.97315   0.00000  Uiso   1.00
C6762  C     1.03697   0.59943   1.11632   0.00000  Uiso   1.00
H6763  H     1.01630   0.60755   1.11474   0.00000  Uiso   1.00
C6764  C     1.09901   0.56301   1.08315   0.00000  Uiso   1.00
C6765  C     1.01580   0.55022   1.11669   0.00000  Uiso   1.00
H6766  H     0.99497   0.55666   1.12268   0.00000  Uiso   1.00
H6767  H     1.02233   0.60112   1.00685   0.00000  Uiso   1.00
C6768  C     1.02784   0.65149   1.22140   0.00000  Uiso   1.00
C6769  C     1.03663   0.56933   1.12898   0.00000  Uiso   1.00
C6770  C     1.08904   0.63567   1.09696   0.00000  Uiso   1.00
C6771  C     1.20659   0.65049   1.18177   0.00000  Uiso   1.00
C6772  C     1.08806   0.67318   1.06405   0.00000  Uiso   1.00
C6773  C     0.97756   0.64166   1.19930   0.00000  Uiso   1.00
C6774  C     1.09387   0.52094   1.20526   0.00000  Uiso   1.00
H6775  H     1.18639   0.60170   1.06319   0.00000  Uiso   1.00
H6776  H     1.04425   0.63055   1.00407   0.00000  Uiso   1.00
C6777  C     1.18677   0.56994   1.18961   0.00000  Uiso   1.00
C6778  C     1.14854   0.67517   1.21878   0.00000  Uiso   1.00
H6779  H     1.11465   0.60359   1.02664   0.00000  Uiso   1.00
H6780  H     1.17731   0.63806   1.02178   0.00000  Uiso   1.00
H6781  H     1.20591   0.56452   1.20339   0.00000  Uiso   1.00
C6782  C     1.21784   0.55749   1.12000   0.00000  Uiso   1.00
C6783  C     1.03249   0.56793   1.15921   0.00000  Uiso   1.00
H6784  H     1.04614   0.58236   1.16892   0.00000  Uiso   1.00
H6785  H     1.01078   0.57311   1.16366   0.00000  Uiso   1.00
H6786  H     1.08890   0.54298   1.20461   0.00000  Uiso   1.00
H6787  H     1.17354   0.50978   1.18304   0.00000  Uiso   1.00
H6788  H     1.07666   0.48125   1.02620   0.00000  Uiso   1.00
C6789  C     1.12622   0.63280   1.19468   0.00000  Uiso   1.00
H6790  H     1.04826   0.61303   1.13083   0.00000  Uiso   1.00
H6791  H     1.20228   0.59817   1.13455   0.00000  Uiso   1.00
H6792  H     1.09610   0.62734   1.11705   0.00000  Uiso   1.00
H6793  H     1.16458   0.56913   0.99336   0.00000  Uiso   1.00
H6794  H     1.10769   0.57639   1.06774   0.00000  Uiso   1.00
C6795  C     1.11189   0.53973   1.09228   0.00000  Uiso   1.00
C6796  C     1.09829   0.66225   1.08813   0.00000  Uiso   1.00
H6797  H     1.21130   0.61703   1.08763   0.00000  Uiso   1.00
H6798  H     1.08941   0.62231   0.98784   0.00000  Uiso   1.00
C6799  C     1.11554   0.71355   1.06958   0.00000  Uiso   1.00
O6800  O     1.11797   0.67720   1.10522   0.00000  Uiso   1.00
C6801  C     1.22175   0.48178   1.14055   0.00000  Uiso   1.00
H6802  H     1.00719   0.65166   1.03687   0.00000  Uiso   1.00
H6803  H     0.94468   0.59736   1.03081   0.00000  Uiso   1.00
H6804  H     1.15586   0.58657   1.14433   0.00000  Uiso   1.00
C6805  C     1.15809   0.70618   1.13352   0.00000  Uiso   1.00
H6806  H     1.14308   0.63729   1.17925   0.00000  Uiso   1.00
C6807  C     1.20903   0.57689   1.14242   0.00000  Uiso   1.00
H6808  H     1.02838   0.70946   1.15447   0.00000  Uiso   1.00
C6809  C     1.20875   0.60426   1.06841   0.00000  Uiso   1.00
C6810  C     1.15012   0.61320   0.99871   0.00000  Uiso   1.00
C6811  C     1.10616   0.63664   0.98019   0.00000  Uiso   1.00
H6812  H     1.11312   0.69671   1.20246   0.00000  Uiso   1.00
O6813  O     1.13457   0.53050   1.07833   0.00000  Uiso   1.00
N6814  N     0.99792   0.65815   0.98721   0.00000  Uiso   1.00
O6815  O     1.09607   0.69893   1.05439   0.00000  Uiso   1.00
C6816  C     1.02240   0.70198   1.21392   0.00000  Uiso   1.00
H6817  H     1.04660   0.62982   1.18642   0.00000  Uiso   1.00
C6818  C     1.13931   0.50077   1.08352   0.00000  Uiso   1.00
N6819  N     1.18106   0.51554   1.02558   0.00000  Uiso   1.00
H6820  H     0.97568   0.71957   1.17849   0.00000  Uiso   1.00
H6821  H     1.05411   0.67561   1.19761   0.00000  Uiso   1.00
C6822  C     1.14853   0.71608   1.10805   0.00000  Uiso   1.00
H6823  H     0.94674   0.55771   0.98705   0.00000  Uiso   1.00
H6824  H     0.90073   0.57632   1.02262   0.00000  Uiso   1.00
C6825  C     1.01434   0.67468   0.98551   0.00000  Uiso   1.00
H6826  H     1.11022   0.49721   1.01961   0.00000  Uiso   1.00
C6827  C     1.21820   0.56280   1.04173   0.00000  Uiso   1.00
C6828  C     1.03412   0.69578   0.98059   0.00000  Uiso   1.00
C6829  C     0.89637   0.62612   1.14416   0.00000  Uiso   1.00
H6830  H     1.12949   0.57797   0.98231   0.00000  Uiso   1.00
C6831  C     1.04424   0.67836   1.21732   0.00000  Uiso   1.00
C6832  C     1.21625   0.53078   1.13405   0.00000  Uiso   1.00
C6833  C     1.13531   0.63385   0.98229   0.00000  Uiso   1.00
H6834  H     1.06656   0.63103   1.21541   0.00000  Uiso   1.00
H6835  H     1.08881   0.51613   0.98208   0.00000  Uiso   1.00
H6836  H     1.03864   0.60864   1.21386   0.00000  Uiso   1.00
H6837  H     0.91875   0.68958   1.22181   0.00000  Uiso   1.00
C6838  C     0.94193   0.57594   0.97575   0.00000  Uiso   1.00
H6839  H     1.22128   0.61328   1.05066   0.00000  Uiso   1.00
C6840  C     1.13811   0.64546   1.22218   0.00000  Uiso   1.00
H6841  H     1.16671   0.60927   1.22153   0.00000  Uiso   1.00
C6842  C     1.15011   0.48615   0.97746   0.00000  Uiso   1.00
C6843  C     0.91696   0.79830   0.34483   0.00000  Uiso   1.00
H6844  H     1.01785   0.87497   0.30245   0.00000  Uiso   1.00
C6845  C     0.91125   0.76377   0.38032   0.00000  Uiso   1.00
C6846  C     0.89194   0.88452   0.40299   0.00000  Uiso   1.00
C6847  C     1.18905   0.90021   0.39030   0.00000  Uiso   1.00
O6848  O     0.94723   0.82579   0.40717   0.00000  Uiso   1.00
C6849  C     0.98033   0.91729   0.36640   0.00000  Uiso   1.00
C6850  C     1.01159   0.89627   0.30095   0.00000  Uiso   1.00
C6851  C     1.12039   0.87596   0.26675   0.00000  Uiso   1.00
H6852  H     0.93295   0.92880   0.34090   0.00000  Uiso   1.00
C6853  C     1.10282   0.95630   0.22482   0.00000  Uiso   1.00
C6854  C     0.99864   0.74716   0.36094   0.00000  Uiso   1.00
N6855  N     0.93006   0.86696   0.34826   0.00000  Uiso   1.00
C6856  C     0.90290   0.73614   0.38898   0.00000  Uiso   1.00
H6857  H     0.91086   0.89429   0.39421   0.00000  Uiso   1.00
C6858  C     0.90556   0.78731   0.29947   0.00000  Uiso   1.00
H6859  H     0.98438   0.84415   0.33820   0.00000  Uiso   1.00
C6860  C     1.01867   0.77531   0.39786   0.00000  Uiso   1.00
H6861  H     0.98560   0.84586   0.44013   0.00000  Uiso   1.00
C6862  C     1.07333   0.84775   0.46720   0.00000  Uiso   1.00
C6863  C     1.04217   0.81476   0.29969   0.00000  Uiso   1.00
C6864  C     1.00377   0.77331   0.37214   0.00000  Uiso   1.00
O6865  O     0.99598   0.79725   0.35828   0.00000  Uiso   1.00
O6866  O     1.09337   0.83707   0.44946   0.00000  Uiso   1.00
O6867  O     1.02861   0.80058   0.40873   0.00000  Uiso   1.00
C6868  C     1.00592   0.82270   0.36966   0.00000  Uiso   1.00
C6869  C     1.02383   0.82311   0.39288   0.00000  Uiso   1.00
C6870  C     0.99818   0.84689   0.35673   0.00000  Uiso   1.00
C6871  C     1.03547   0.84855   0.40119   0.00000  Uiso   1.00
H6872  H     1.04921   0.84710   0.41876   0.00000  Uiso   1.00
H6873  H     1.07298   0.72521   0.25494   0.00000  Uiso   1.00
C6874  C     1.17348   0.75092   0.30215   0.00000  Uiso   1.00
H6875  H     1.19585   0.87562   0.24078   0.00000  Uiso   1.00
O6876  O     1.17625   0.90689   0.41432   0.00000  Uiso   1.00
C6877  C     1.00820   0.87283   0.36650   0.00000  Uiso   1.00
C6878  C     1.02794   0.87250   0.38771   0.00000  Uiso   1.00
C6879  C     0.92655   0.81691   0.36443   0.00000  Uiso   1.00
O6880  O     1.02025   0.89333   0.25316   0.00000  Uiso   1.00
C6881  C     1.02974   0.74333   0.24129   0.00000  Uiso   1.00
H6882  H     0.98442   0.92537   0.38680   0.00000  Uiso   1.00
C6883  C     1.19147   0.81022   0.45242   0.00000  Uiso   1.00
H6884  H     0.90448   0.81747   0.26381   0.00000  Uiso   1.00
C6885  C     1.09755   0.78854   0.31401   0.00000  Uiso   1.00
C6886  C     1.15455   0.88960   0.42132   0.00000  Uiso   1.00
C6887  C     1.13338   0.88209   0.24246   0.00000  Uiso   1.00
C6888  C     0.94302   0.94781   0.34630   0.00000  Uiso   1.00
H6889  H     1.10406   0.82273   0.22972   0.00000  Uiso   1.00
C6890  C     1.12902   0.84889   0.41748   0.00000  Uiso   1.00
C6891  C     1.16042   0.91975   0.26173   0.00000  Uiso   1.00
C6892  C     1.07465   0.89754   0.39209   0.00000  Uiso   1.00
C6893  C     0.89826   0.76035   0.30681   0.00000  Uiso   1.00
H6894  H     1.03970   0.90163   0.43438   0.00000  Uiso   1.00
O6895  O     1.20914   0.76245   0.40296   0.00000  Uiso   1.00
C6896  C     1.10209   0.85020   0.26639   0.00000  Uiso   1.00
C6897  C     1.03463   0.91567   0.41850   0.00000  Uiso   1.00
O6898  O     1.17973   0.94129   0.25820   0.00000  Uiso   1.00
C6899  C     1.20811   0.86049   0.25328   0.00000  Uiso   1.00
H6900  H     1.03046   0.93766   0.36771   0.00000  Uiso   1.00
C6901  C     0.97478   0.82701   0.45059   0.00000  Uiso   1.00
C6902  C     0.94352   0.78898   0.44341   0.00000  Uiso   1.00
C6903  C     0.95572   0.81448   0.43320   0.00000  Uiso   1.00
C6904  C     1.14820   0.86587   0.40599   0.00000  Uiso   1.00
H6905  H     1.01277   0.92230   0.41980   0.00000  Uiso   1.00
C6906  C     0.92445   0.78100   0.39900   0.00000  Uiso   1.00
H6907  H     1.08476   0.91908   0.38964   0.00000  Uiso   1.00
H6908  H     1.07079   0.87450   0.28422   0.00000  Uiso   1.00
H6909  H     0.98133   0.96877   0.29260   0.00000  Uiso   1.00
O6910  O     0.92717   0.77299   0.42690   0.00000  Uiso   1.00
C6911  C     1.19895   0.73875   0.29669   0.00000  Uiso   1.00
C6912  C     1.04231   0.90101   0.39160   0.00000  Uiso   1.00
H6913  H     1.04722   0.91175   0.34883   0.00000  Uiso   1.00
C6914  C     1.19749   0.74031   0.41672   0.00000  Uiso   1.00
C6915  C     0.90054   0.77412   0.25176   0.00000  Uiso   1.00
C6916  C     1.12058   0.82833   0.40104   0.00000  Uiso   1.00
C6917  C     1.12264   0.77486   0.31152   0.00000  Uiso   1.00
O6918  O     1.00840   0.95225   0.24909   0.00000  Uiso   1.00
C6919  C     1.13768   0.89903   0.44344   0.00000  Uiso   1.00
H6920  H     1.15640   0.75637   0.40952   0.00000  Uiso   1.00
H6921  H     1.09209   0.85659   0.33262   0.00000  Uiso   1.00
O6922  O     1.12748   0.75114   0.32501   0.00000  Uiso   1.00
C6923  C     1.18083   0.95886   0.28243   0.00000  Uiso   1.00
C6924  C     1.12603   0.89352   0.28874   0.00000  Uiso   1.00
H6925  H     0.96384   0.90244   0.36771   0.00000  Uiso   1.00
H6926  H     0.93352   0.95469   0.36610   0.00000  Uiso   1.00
C6927  C     1.07121   0.84760   0.32966   0.00000  Uiso   1.00
O6928  O     0.91321   0.80835   0.31802   0.00000  Uiso   1.00
C6929  C     1.19852   0.87005   0.35021   0.00000  Uiso   1.00
C6930  C     1.15152   0.90376   0.23917   0.00000  Uiso   1.00
O6931  O     1.14738   0.93440   0.30809   0.00000  Uiso   1.00
H6932  H     1.19833   0.88561   0.29538   0.00000  Uiso   1.00
H6933  H     1.11446   0.89198   0.30933   0.00000  Uiso   1.00
C6934  C     1.05912   0.74332   0.25600   0.00000  Uiso   1.00
H6935  H     1.07974   0.88780   0.41133   0.00000  Uiso   1.00
H6936  H     1.17765   0.82773   0.44920   0.00000  Uiso   1.00
H6937  H     0.99070   0.76552   0.24054   0.00000  Uiso   1.00
C6938  C     0.99172   0.94967   0.29578   0.00000  Uiso   1.00
C6939  C     0.97390   0.94234   0.34885   0.00000  Uiso   1.00
C6940  C     1.03275   0.91504   0.36610   0.00000  Uiso   1.00
C6941  C     0.98792   0.93556   0.32145   0.00000  Uiso   1.00
C6942  C     1.01218   0.93607   0.22464   0.00000  Uiso   1.00
H6943  H     1.21642   0.84699   0.23896   0.00000  Uiso   1.00
C6944  C     1.16611   0.95557   0.30703   0.00000  Uiso   1.00
C6945  C     1.14304   0.78782   0.29429   0.00000  Uiso   1.00
C6946  C     1.07111   0.85304   0.27787   0.00000  Uiso   1.00
H6947  H     1.07214   0.76046   0.24795   0.00000  Uiso   1.00
H6948  H     1.05632   0.74646   0.27927   0.00000  Uiso   1.00
O6949  O     1.16825   0.77650   0.28963   0.00000  Uiso   1.00
C6950  C     0.92924   0.84421   0.35600   0.00000  Uiso   1.00
C6951  C     1.02113   0.72577   0.39990   0.00000  Uiso   1.00
O6952  O     1.16399   0.85626   0.38240   0.00000  Uiso   1.00
C6953  C     1.00613   0.90294   0.35539   0.00000  Uiso   1.00
H6954  H     1.08299   0.77894   0.32918   0.00000  Uiso   1.00
H6955  H     1.00832   0.96885   0.36212   0.00000  Uiso   1.00
C6956  C     1.18427   0.87602   0.37545   0.00000  Uiso   1.00
N6957  N     1.05191   0.75231   0.45752   0.00000  Uiso   1.00
C6958  C     0.89983   0.74699   0.25932   0.00000  Uiso   1.00
C6959  C     1.06759   0.83253   0.30281   0.00000  Uiso   1.00
H6960  H     1.10810   0.74313   0.41668   0.00000  Uiso   1.00
C6961  C     1.00428   0.91123   0.32454   0.00000  Uiso   1.00
H6962  H     1.06745   0.83299   0.34683   0.00000  Uiso   1.00
C6963  C     1.13673   0.81130   0.27914   0.00000  Uiso   1.00
O6964  O     0.89640   0.75352   0.33347   0.00000  Uiso   1.00
C6965  C     1.11167   0.82422   0.28194   0.00000  Uiso   1.00
H6966  H     1.00752   0.76629   0.27389   0.00000  Uiso   1.00
C6967  C     1.09251   0.81396   0.30096   0.00000  Uiso   1.00
H6968  H     1.02338   0.82641   0.29717   0.00000  Uiso   1.00
H6969  H     1.15046   0.82191   0.26418   0.00000  Uiso   1.00
C6970  C     1.03893   0.75234   0.43691   0.00000  Uiso   1.00
H6971  H     1.04535   0.80345   0.27993   0.00000  Uiso   1.00
C6972  C     0.98614   0.96943   0.35930   0.00000  Uiso   1.00
H6973  H     1.08168   0.88478   0.37460   0.00000  Uiso   1.00
C6974  C     1.15177   0.96780   0.35213   0.00000  Uiso   1.00
H6975  H     1.05726   0.86574   0.33387   0.00000  Uiso   1.00
H6976  H     1.04718   0.93450   0.42283   0.00000  Uiso   1.00
N6977  N     1.11405   0.81088   0.38633   0.00000  Uiso   1.00
C6978  C     1.00436   0.93659   0.27310   0.00000  Uiso   1.00
H6979  H     0.95272   0.96383   0.44601   0.00000  Uiso   1.00
C6980  C     1.21060   0.91675   0.38182   0.00000  Uiso   1.00
C6981  C     1.21942   0.75290   0.28072   0.00000  Uiso   1.00
C6982  C     1.14588   0.91644   0.28662   0.00000  Uiso   1.00
C6983  C     1.01166   0.90879   0.27528   0.00000  Uiso   1.00
C6984  C     0.93203   0.80825   0.39083   0.00000  Uiso   1.00
H6985  H     1.19542   0.85070   0.26881   0.00000  Uiso   1.00
H6986  H     1.05734   0.84763   0.25948   0.00000  Uiso   1.00
C6987  C     1.21906   0.89178   0.29228   0.00000  Uiso   1.00
C6988  C     1.11339   0.85549   0.44079   0.00000  Uiso   1.00
C6989  C     0.90882   0.77144   0.35256   0.00000  Uiso   1.00
C6990  C     1.10151   0.84414   0.23578   0.00000  Uiso   1.00
C6991  C     0.98477   0.74435   0.33548   0.00000  Uiso   1.00
H6992  H     1.04061   0.79927   0.31802   0.00000  Uiso   1.00
C6993  C     1.15312   0.73852   0.32014   0.00000  Uiso   1.00
H6994  H     1.21569   0.91162   0.28525   0.00000  Uiso   1.00
H6995  H     1.04970   0.81073   0.46960   0.00000  Uiso   1.00
C6996  C     0.89808   0.72693   0.23503   0.00000  Uiso   1.00
C6997  C     1.02583   0.75125   0.41205   0.00000  Uiso   1.00
N6998  N     1.08843   0.96484   0.43128   0.00000  Uiso   1.00
N6999  N     0.97287   0.74176   0.31468   0.00000  Uiso   1.00
C7000  C     1.16848   0.73953   0.41887   0.00000  Uiso   1.00
H7001  H     1.08091   0.84840   0.22598   0.00000  Uiso   1.00
H7002  H     1.19157   0.85065   0.34011   0.00000  Uiso   1.00
N7003  N     1.13635   0.96365   0.37018   0.00000  Uiso   1.00
C7004  C     1.01090   0.76743   0.25084   0.00000  Uiso   1.00
H7005  H     0.93890   0.96350   0.33091   0.00000  Uiso   1.00
H7006  H     1.01725   0.78716   0.24506   0.00000  Uiso   1.00
H7007  H     0.89788   0.86736   0.41575   0.00000  Uiso   1.00
H7008  H     1.13147   0.75542   0.46336   0.00000  Uiso   1.00
C7009  C     0.90369   0.79530   0.27149   0.00000  Uiso   1.00
C7010  C     1.01516   0.90634   0.22754   0.00000  Uiso   1.00
C7011  C     1.14381   0.92379   0.45849   0.00000  Uiso   1.00
C7012  C     0.95021   0.77821   0.46969   0.00000  Uiso   1.00
C7013  C     1.11713   0.88214   0.45219   0.00000  Uiso   1.00
C7014  C     1.12669   0.73359   0.46797   0.00000  Uiso   1.00
H7015  H     1.20475   0.80481   0.43474   0.00000  Uiso   1.00
H7016  H     1.17956   0.79203   0.45530   0.00000  Uiso   1.00
H7017  H     1.21746   0.93440   0.39378   0.00000  Uiso   1.00
H7018  H     0.93636   0.80833   0.22750   0.00000  Uiso   1.00
C7019  C     1.16943   0.97214   0.33040   0.00000  Uiso   1.00
C7020  C     1.22062   0.88702   0.34270   0.00000  Uiso   1.00
H7021  H     0.99355   0.88787   0.46512   0.00000  Uiso   1.00
C7022  C     0.89602   0.74031   0.28694   0.00000  Uiso   1.00
H7023  H     0.89499   0.91916   0.45261   0.00000  Uiso   1.00
N7024  N     1.14896   0.94432   0.46965   0.00000  Uiso   1.00
H7025  H     0.91644   0.97244   0.44396   0.00000  Uiso   1.00
H7026  H     0.99218   0.97244   0.46874   0.00000  Uiso   1.00
C7027  C     1.00799   0.72325   0.37390   0.00000  Uiso   1.00
N7028  N     1.08488   0.94078   0.22385   0.00000  Uiso   1.00
H7029  H     1.15991   0.83969   0.22392   0.00000  Uiso   1.00
O7030  O     1.11038   0.74848   0.53457   0.00000  Uiso   1.00
C7031  C     1.10953   0.85797   0.54663   0.00000  Uiso   1.00
C7032  C     0.91797   0.79952   0.61439   0.00000  Uiso   1.00
H7033  H     1.16535   0.83529   0.56692   0.00000  Uiso   1.00
H7034  H     1.13879   0.93820   0.54713   0.00000  Uiso   1.00
C7035  C     0.88995   0.81580   0.66351   0.00000  Uiso   1.00
H7036  H     0.92734   0.72646   0.66058   0.00000  Uiso   1.00
C7037  C     0.99495   0.88464   0.67800   0.00000  Uiso   1.00
C7038  C     0.98174   0.78434   0.51444   0.00000  Uiso   1.00
C7039  C     1.00295   0.88052   0.50956   0.00000  Uiso   1.00
C7040  C     0.97057   0.87124   0.68744   0.00000  Uiso   1.00
O7041  O     1.21428   0.95257   0.63218   0.00000  Uiso   1.00
N7042  N     1.04530   0.92592   0.59160   0.00000  Uiso   1.00
C7043  C     1.20668   0.85082   0.62932   0.00000  Uiso   1.00
H7044  H     1.10417   0.80063   0.54711   0.00000  Uiso   1.00
H7045  H     0.94414   0.92320   0.56699   0.00000  Uiso   1.00
C7046  C     0.92839   0.96113   0.64572   0.00000  Uiso   1.00
C7047  C     1.08076   0.81975   0.60198   0.00000  Uiso   1.00
C7048  C     0.94992   0.76726   0.71859   0.00000  Uiso   1.00
O7049  O     1.00782   0.90232   0.69731   0.00000  Uiso   1.00
C7050  C     1.04454   0.93058   0.70615   0.00000  Uiso   1.00
H7051  H     0.96648   0.78111   0.55685   0.00000  Uiso   1.00
C7052  C     0.95620   0.85272   0.66932   0.00000  Uiso   1.00
H7053  H     1.01177   0.91745   0.53405   0.00000  Uiso   1.00
H7054  H     0.90782   0.91252   0.53313   0.00000  Uiso   1.00
C7055  C     1.10925   0.85528   0.57897   0.00000  Uiso   1.00
H7056  H     1.13748   0.72891   0.48722   0.00000  Uiso   1.00
C7057  C     1.19373   0.92686   0.52458   0.00000  Uiso   1.00
H7058  H     1.20322   0.82323   0.52114   0.00000  Uiso   1.00
C7059  C     0.99149   0.86063   0.63433   0.00000  Uiso   1.00
C7060  C     1.05403   0.88571   0.49432   0.00000  Uiso   1.00
H7061  H     1.00627   0.79656   0.63718   0.00000  Uiso   1.00
C7062  C     1.14539   0.92849   0.65369   0.00000  Uiso   1.00
C7063  C     1.17326   0.92653   0.64622   0.00000  Uiso   1.00
C7064  C     0.96814   0.84780   0.64251   0.00000  Uiso   1.00
H7065  H     0.98785   0.78979   0.70307   0.00000  Uiso   1.00
H7066  H     1.01310   0.81001   0.53777   0.00000  Uiso   1.00
H7067  H     0.98699   0.84869   0.53653   0.00000  Uiso   1.00
C7068  C     1.16640   0.73519   0.53517   0.00000  Uiso   1.00
C7069  C     1.04220   0.91085   0.66108   0.00000  Uiso   1.00
C7070  C     0.92037   0.86535   0.57592   0.00000  Uiso   1.00
O7071  O     0.89413   0.95868   0.68955   0.00000  Uiso   1.00
C7072  C     1.12763   0.83214   0.59069   0.00000  Uiso   1.00
C7073  C     1.20407   0.77135   0.60322   0.00000  Uiso   1.00
H7074  H     1.14249   0.88349   0.58173   0.00000  Uiso   1.00
C7075  C     0.99322   0.75560   0.51411   0.00000  Uiso   1.00
H7076  H     1.13376   0.91003   0.66024   0.00000  Uiso   1.00
C7077  C     1.12109   0.88214   0.59130   0.00000  Uiso   1.00
C7078  C     1.07804   0.94369   0.67226   0.00000  Uiso   1.00
C7079  C     1.00518   0.87963   0.65099   0.00000  Uiso   1.00
H7080  H     0.90948   0.95269   0.49015   0.00000  Uiso   1.00
H7081  H     0.95050   0.80655   0.53642   0.00000  Uiso   1.00
H7082  H     1.12459   0.88090   0.61334   0.00000  Uiso   1.00
O7083  O     0.95645   0.82728   0.62535   0.00000  Uiso   1.00
C7084  C     0.89153   0.78849   0.62015   0.00000  Uiso   1.00
H7085  H     0.91486   0.75785   0.67148   0.00000  Uiso   1.00
H7086  H     0.90036   0.87930   0.63172   0.00000  Uiso   1.00
C7087  C     1.21066   0.95588   0.56279   0.00000  Uiso   1.00
C7088  C     1.16658   0.80232   0.59735   0.00000  Uiso   1.00
H7089  H     1.02501   0.79426   0.50808   0.00000  Uiso   1.00
N7090  N     1.19493   0.83083   0.63420   0.00000  Uiso   1.00
C7091  C     0.95838   0.87946   0.71218   0.00000  Uiso   1.00
C7092  C     0.90805   0.89419   0.57392   0.00000  Uiso   1.00
C7093  C     1.02952   0.87174   0.49769   0.00000  Uiso   1.00
C7094  C     0.93030   0.81718   0.63312   0.00000  Uiso   1.00
O7095  O     1.18672   0.90170   0.64621   0.00000  Uiso   1.00
O7096  O     0.92997   0.84110   0.67783   0.00000  Uiso   1.00
H7097  H     1.01428   0.88435   0.55274   0.00000  Uiso   1.00
H7098  H     0.90450   0.73671   0.61781   0.00000  Uiso   1.00
H7099  H     0.99008   0.74201   0.68246   0.00000  Uiso   1.00
C7100  C     1.12986   0.86457   0.69943   0.00000  Uiso   1.00
H7101  H     1.10439   0.73190   0.47536   0.00000  Uiso   1.00
C7102  C     1.02827   0.84459   0.48945   0.00000  Uiso   1.00
C7103  C     1.03103   0.91285   0.68808   0.00000  Uiso   1.00
H7104  H     1.04477   0.83285   0.62329   0.00000  Uiso   1.00
C7105  C     1.15321   0.78863   0.61813   0.00000  Uiso   1.00
H7106  H     1.00263   0.77114   0.61129   0.00000  Uiso   1.00
H7107  H     1.07104   0.81602   0.64408   0.00000  Uiso   1.00
C7108  C     1.08939   0.78664   0.55852   0.00000  Uiso   1.00
H7109  H     1.18635   0.85002   0.70122   0.00000  Uiso   1.00
C7110  C     1.00513   0.89701   0.53649   0.00000  Uiso   1.00
H7111  H     1.18441   0.92589   0.50364   0.00000  Uiso   1.00
C7112  C     1.00153   0.85818   0.60670   0.00000  Uiso   1.00
C7113  C     1.06911   0.73982   0.56236   0.00000  Uiso   1.00
H7114  H     0.92646   0.96593   0.51713   0.00000  Uiso   1.00
C7115  C     1.20683   0.74337   0.64296   0.00000  Uiso   1.00
H7116  H     0.91422   0.93554   0.58744   0.00000  Uiso   1.00
C7117  C     1.07849   0.84855   0.58685   0.00000  Uiso   1.00
H7118  H     1.07634   0.92473   0.63387   0.00000  Uiso   1.00
H7119  H     0.92832   0.79189   0.59514   0.00000  Uiso   1.00
O7120  O     1.02884   0.89390   0.64142   0.00000  Uiso   1.00
H7121  H     1.17823   0.83136   0.49852   0.00000  Uiso   1.00
C7122  C     0.89301   0.89972   0.54571   0.00000  Uiso   1.00
C7123  C     1.06602   0.92536   0.65459   0.00000  Uiso   1.00
H7124  H     1.13968   0.85388   0.68168   0.00000  Uiso   1.00
C7125  C     0.93331   0.74583   0.66985   0.00000  Uiso   1.00
C7126  C     1.08682   0.96311   0.71651   0.00000  Uiso   1.00
H7127  H     1.05773   0.90771   0.50188   0.00000  Uiso   1.00
H7128  H     0.92950   0.86546   0.59594   0.00000  Uiso   1.00
H7129  H     0.93973   0.91282   0.60049   0.00000  Uiso   1.00
C7130  C     1.05966   0.81412   0.62352   0.00000  Uiso   1.00
O7131  O     1.19282   0.79329   0.58836   0.00000  Uiso   1.00
H7132  H     1.00911   0.80434   0.59974   0.00000  Uiso   1.00
H7133  H     1.18321   0.79618   0.50662   0.00000  Uiso   1.00
H7134  H     1.06550   0.85004   0.56838   0.00000  Uiso   1.00
C7135  C     1.08804   0.75884   0.55075   0.00000  Uiso   1.00
C7136  C     1.05225   0.76647   0.64413   0.00000  Uiso   1.00
H7137  H     1.10630   0.89912   0.58671   0.00000  Uiso   1.00
C7138  C     1.15401   0.82443   0.58280   0.00000  Uiso   1.00
H7139  H     1.07087   0.86396   0.60125   0.00000  Uiso   1.00
H7140  H     1.04088   0.74751   0.64113   0.00000  Uiso   1.00
H7141  H     1.00332   0.91809   0.48295   0.00000  Uiso   1.00
H7142  H     1.04604   0.77434   0.66501   0.00000  Uiso   1.00
H7143  H     1.09292   0.87163   0.53991   0.00000  Uiso   1.00
C7144  C     1.07610   0.87486   0.47846   0.00000  Uiso   1.00
H7145  H     1.00001   0.74969   0.53519   0.00000  Uiso   1.00
H7146  H     0.93572   0.85852   0.55972   0.00000  Uiso   1.00
C7147  C     1.14197   0.96015   0.54326   0.00000  Uiso   1.00
C7148  C     0.92765   0.91759   0.58169   0.00000  Uiso   1.00
C7149  C     0.98607   0.85312   0.51462   0.00000  Uiso   1.00
H7150  H     0.90454   0.84911   0.57303   0.00000  Uiso   1.00
C7151  C     1.00100   0.83004   0.49734   0.00000  Uiso   1.00
H7152  H     1.21312   0.91619   0.52255   0.00000  Uiso   1.00
C7153  C     0.91640   0.82541   0.65817   0.00000  Uiso   1.00
C7154  C     1.05033   0.94922   0.58802   0.00000  Uiso   1.00
C7155  C     1.05222   0.75004   0.58380   0.00000  Uiso   1.00
C7156  C     1.12583   0.79398   0.62254   0.00000  Uiso   1.00
H7157  H     1.07389   0.75926   0.64439   0.00000  Uiso   1.00
C7158  C     1.18711   0.95153   0.63937   0.00000  Uiso   1.00
C7159  C     1.11203   0.96488   0.69917   0.00000  Uiso   1.00
H7160  H     1.14431   0.81243   0.71174   0.00000  Uiso   1.00
C7161  C     1.07360   0.79488   0.58193   0.00000  Uiso   1.00
O7162  O     1.16479   0.76914   0.63549   0.00000  Uiso   1.00
C7163  C     1.19388   0.81613   0.50239   0.00000  Uiso   1.00
H7164  H     0.98357   0.89920   0.54530   0.00000  Uiso   1.00
H7165  H     0.97809   0.74090   0.50410   0.00000  Uiso   1.00
H7166  H     1.20139   0.94129   0.57787   0.00000  Uiso   1.00
C7167  C     1.21162   0.90130   0.63192   0.00000  Uiso   1.00
N7168  N     0.94812   0.94821   0.64590   0.00000  Uiso   1.00
N7169  N     1.01124   0.85509   0.58531   0.00000  Uiso   1.00
H7170  H     1.11405   0.78102   0.63682   0.00000  Uiso   1.00
H7171  H     0.97145   0.72447   0.60692   0.00000  Uiso   1.00
C7172  C     1.04507   0.78667   0.62078   0.00000  Uiso   1.00
H7173  H     0.94785   0.75822   0.65651   0.00000  Uiso   1.00
C7174  C     1.13247   0.95300   0.65514   0.00000  Uiso   1.00
C7175  C     1.11170   0.81476   0.60697   0.00000  Uiso   1.00
N7176  N     1.18288   0.75174   0.53004   0.00000  Uiso   1.00
H7177  H     1.12927   0.86599   0.53797   0.00000  Uiso   1.00
C7178  C     1.19651   0.95656   0.53397   0.00000  Uiso   1.00
C7179  C     1.16779   0.97099   0.53738   0.00000  Uiso   1.00
H7180  H     0.97829   0.95915   0.71091   0.00000  Uiso   1.00
H7181  H     1.10767   0.86401   0.69685   0.00000  Uiso   1.00
C7182  C     0.95977   0.78534   0.53617   0.00000  Uiso   1.00
C7183  C     1.22164   0.87510   0.62285   0.00000  Uiso   1.00
C7184  C     1.01437   0.78982   0.61798   0.00000  Uiso   1.00
C7185  C     1.05552   0.77628   0.59428   0.00000  Uiso   1.00
C7186  C     1.00653   0.80469   0.51577   0.00000  Uiso   1.00
H7187  H     1.13769   0.88659   0.70062   0.00000  Uiso   1.00
C7188  C     1.06822   0.94465   0.69860   0.00000  Uiso   1.00
C7189  C     0.96921   0.78874   0.71800   0.00000  Uiso   1.00
H7190  H     0.94183   0.77038   0.53181   0.00000  Uiso   1.00
H7191  H     1.17980   0.91507   0.53895   0.00000  Uiso   1.00
H7192  H     0.96422   0.85611   0.50815   0.00000  Uiso   1.00
H7193  H     1.21204   0.75639   0.48751   0.00000  Uiso   1.00
H7194  H     1.10321   0.83933   0.53675   0.00000  Uiso   1.00
C7195  C     1.21079   0.81418   0.47630   0.00000  Uiso   1.00
H7196  H     0.93981   0.75871   0.47723   0.00000  Uiso   1.00
H7197  H     1.01109   0.75230   0.50060   0.00000  Uiso   1.00
C7198  C     0.94782   0.74192   0.69944   0.00000  Uiso   1.00
C7199  C     0.99096   0.89831   0.48491   0.00000  Uiso   1.00
H7200  H     0.96963   0.90382   0.48901   0.00000  Uiso   1.00
C7201  C     0.92929   0.96133   0.49576   0.00000  Uiso   1.00
C7202  C     0.97045   0.79158   0.48506   0.00000  Uiso   1.00
H7203  H     0.94548   0.94577   0.49265   0.00000  Uiso   1.00
C7204  C     1.19643   0.73149   0.66694   0.00000  Uiso   1.00
H7205  H     1.03878   0.73508   0.59275   0.00000  Uiso   1.00
H7206  H     1.21734   0.86002   0.48481   0.00000  Uiso   1.00
C7207  C     1.19115   0.76077   0.62702   0.00000  Uiso   1.00
C7208  C     1.10508   0.96127   0.66864   0.00000  Uiso   1.00
C7209  C     0.98105   0.81637   0.47592   0.00000  Uiso   1.00
H7210  H     1.12348   0.94562   0.70352   0.00000  Uiso   1.00
O7211  O     1.09364   0.96474   0.55416   0.00000  Uiso   1.00
C7212  C     1.04968   0.83224   0.47380   0.00000  Uiso   1.00
C7213  C     0.97578   0.72926   0.69573   0.00000  Uiso   1.00
H7214  H     0.99640   0.72378   0.58088   0.00000  Uiso   1.00
C7215  C     0.93005   0.72338   0.71907   0.00000  Uiso   1.00
H7216  H     0.99563   0.97097   0.66246   0.00000  Uiso   1.00
O7217  O     1.09901   0.89203   0.47367   0.00000  Uiso   1.00
H7218  H     0.89122   0.87961   0.53324   0.00000  Uiso   1.00
H7219  H     0.98682   0.72569   0.71473   0.00000  Uiso   1.00
H7220  H     1.01141   0.97151   0.72301   0.00000  Uiso   1.00
C7221  C     1.18832   0.85481   0.72277   0.00000  Uiso   1.00
C7222  C     1.18395   0.80246   0.93053   0.00000  Uiso   1.00
C7223  C     0.90324   0.79738   0.90549   0.00000  Uiso   1.00
C7224  C     1.19236   0.87035   0.77803   0.00000  Uiso   1.00
C7225  C     1.13997   0.73503   0.85530   0.00000  Uiso   1.00
H7226  H     1.15838   0.92380   0.90379   0.00000  Uiso   1.00
C7227  C     1.01795   0.96585   0.84859   0.00000  Uiso   1.00
C7228  C     1.12656   0.83982   0.95711   0.00000  Uiso   1.00
H7229  H     1.09963   0.85312   0.75450   0.00000  Uiso   1.00
C7230  C     1.07054   0.75331   0.75322   0.00000  Uiso   1.00
C7231  C     0.96692   0.80953   0.73860   0.00000  Uiso   1.00
N7232  N     1.16392   0.73133   0.85699   0.00000  Uiso   1.00
O7233  O     0.98720   0.82938   0.73990   0.00000  Uiso   1.00
N7234  N     0.93958   0.95192   0.87902   0.00000  Uiso   1.00
C7235  C     1.21229   0.75346   0.76554   0.00000  Uiso   1.00
C7236  C     1.10249   0.76635   0.84218   0.00000  Uiso   1.00
H7237  H     1.04583   0.83386   0.88891   0.00000  Uiso   1.00
C7238  C     1.04239   0.83833   0.91052   0.00000  Uiso   1.00
H7239  H     0.92192   0.82040   0.95262   0.00000  Uiso   1.00
C7240  C     1.10784   0.89222   0.81280   0.00000  Uiso   1.00
C7241  C     0.99855   0.92465   0.82901   0.00000  Uiso   1.00
C7242  C     1.02458   0.95583   0.80043   0.00000  Uiso   1.00
O7243  O     1.01569   0.91308   0.78338   0.00000  Uiso   1.00
C7244  C     0.93747   0.77766   0.86459   0.00000  Uiso   1.00
C7245  C     0.89018   0.95488   0.89793   0.00000  Uiso   1.00
H7246  H     1.06736   0.85675   0.83641   0.00000  Uiso   1.00
H7247  H     0.91454   0.82153   0.82759   0.00000  Uiso   1.00
C7248  C     0.91637   0.72551   0.78260   0.00000  Uiso   1.00
H7249  H     1.04209   0.85470   0.95883   0.00000  Uiso   1.00
H7250  H     1.06391   0.90372   0.81619   0.00000  Uiso   1.00
H7251  H     1.11306   0.88797   0.74301   0.00000  Uiso   1.00
H7252  H     1.03435   0.93149   0.72581   0.00000  Uiso   1.00
C7253  C     0.94242   0.77098   0.89178   0.00000  Uiso   1.00
O7254  O     0.98289   0.90002   0.83307   0.00000  Uiso   1.00
O7255  O     1.16725   0.81573   0.94904   0.00000  Uiso   1.00
H7256  H     1.21136   0.93985   0.89867   0.00000  Uiso   1.00
C7257  C     0.88998   0.85908   0.91856   0.00000  Uiso   1.00
H7258  H     1.15178   0.90010   0.80605   0.00000  Uiso   1.00
C7259  C     0.94510   0.80734   0.75876   0.00000  Uiso   1.00
H7260  H     1.07970   0.90056   0.90442   0.00000  Uiso   1.00
C7261  C     1.13769   0.86872   0.77725   0.00000  Uiso   1.00
C7262  C     1.21677   0.86646   0.76237   0.00000  Uiso   1.00
O7263  O     0.94648   0.82374   0.78344   0.00000  Uiso   1.00
O7264  O     1.12104   0.77796   0.82310   0.00000  Uiso   1.00
H7265  H     0.89720   0.74163   0.93137   0.00000  Uiso   1.00
H7266  H     1.04414   0.88839   0.94833   0.00000  Uiso   1.00
H7267  H     1.10397   0.83932   0.88183   0.00000  Uiso   1.00
C7268  C     0.96621   0.84445   0.78457   0.00000  Uiso   1.00
C7269  C     1.14328   0.82686   0.93807   0.00000  Uiso   1.00
H7270  H     1.18994   0.73983   0.81270   0.00000  Uiso   1.00
C7271  C     1.09185   0.84897   0.92225   0.00000  Uiso   1.00
H7272  H     0.96409   0.79827   0.94937   0.00000  Uiso   1.00
C7273  C     0.90869   0.74269   0.73407   0.00000  Uiso   1.00
C7274  C     0.96361   0.86382   0.80707   0.00000  Uiso   1.00
H7275  H     1.10752   0.93406   0.74834   0.00000  Uiso   1.00
H7276  H     0.96967   0.76265   0.94500   0.00000  Uiso   1.00
C7277  C     0.95521   0.77789   0.95466   0.00000  Uiso   1.00
H7278  H     1.15039   0.81423   0.79350   0.00000  Uiso   1.00
H7279  H     1.08450   0.93002   0.80476   0.00000  Uiso   1.00
C7280  C     1.08168   0.90785   0.80322   0.00000  Uiso   1.00
C7281  C     1.11410   0.80585   0.81815   0.00000  Uiso   1.00
H7282  H     0.89614   0.94241   0.82819   0.00000  Uiso   1.00
C7283  C     0.91467   0.79394   0.85708   0.00000  Uiso   1.00
C7284  C     1.13210   0.82184   0.72816   0.00000  Uiso   1.00
C7285  C     1.11121   0.73993   0.85268   0.00000  Uiso   1.00
H7286  H     1.04352   0.89361   0.89763   0.00000  Uiso   1.00
C7287  C     1.12527   0.84902   0.79760   0.00000  Uiso   1.00
C7288  C     1.21963   0.77379   0.89435   0.00000  Uiso   1.00
H7289  H     0.99248   0.93852   0.87214   0.00000  Uiso   1.00
C7290  C     1.20905   0.78500   0.97088   0.00000  Uiso   1.00
C7291  C     1.15540   0.94095   0.88997   0.00000  Uiso   1.00
C7292  C     1.09327   0.95178   0.74677   0.00000  Uiso   1.00
C7293  C     0.94213   0.85919   0.82803   0.00000  Uiso   1.00
N7294  N     1.09452   0.77386   0.93525   0.00000  Uiso   1.00
H7295  H     0.91243   0.94674   0.73902   0.00000  Uiso   1.00
O7296  O     0.95568   0.76844   0.84366   0.00000  Uiso   1.00
H7297  H     1.19974   0.77152   0.77263   0.00000  Uiso   1.00
H7298  H     1.05223   0.94817   0.88386   0.00000  Uiso   1.00
O7299  O     1.06814   0.80307   0.84450   0.00000  Uiso   1.00
C7300  C     1.21001   0.72891   0.80997   0.00000  Uiso   1.00
C7301  C     1.13537   0.85186   0.72783   0.00000  Uiso   1.00
C7302  C     1.13629   0.82633   0.91035   0.00000  Uiso   1.00
H7303  H     0.90693   0.74296   0.96632   0.00000  Uiso   1.00
H7304  H     0.94740   0.86885   0.94940   0.00000  Uiso   1.00
H7305  H     1.13089   0.91387   0.78049   0.00000  Uiso   1.00
C7306  C     1.00470   0.86753   0.76592   0.00000  Uiso   1.00
N7307  N     0.92419   0.85466   0.84281   0.00000  Uiso   1.00
C7308  C     1.06131   0.72845   0.76453   0.00000  Uiso   1.00
C7309  C     1.17797   0.80202   0.90226   0.00000  Uiso   1.00
C7310  C     1.06319   0.85936   0.92007   0.00000  Uiso   1.00
H7311  H     1.11035   0.81667   0.72389   0.00000  Uiso   1.00
H7312  H     0.97435   0.76835   0.84929   0.00000  Uiso   1.00
H7313  H     1.19918   0.73857   0.75348   0.00000  Uiso   1.00
H7314  H     0.90907   0.85711   0.90723   0.00000  Uiso   1.00
C7315  C     1.13067   0.82113   0.80164   0.00000  Uiso   1.00
H7316  H     1.08052   0.91414   0.95147   0.00000  Uiso   1.00
C7317  C     1.03033   0.76621   0.86597   0.00000  Uiso   1.00
C7318  C     1.16767   0.86514   0.76586   0.00000  Uiso   1.00
C7319  C     1.11850   0.86608   0.74980   0.00000  Uiso   1.00
H7320  H     1.04135   0.81951   0.92336   0.00000  Uiso   1.00
C7321  C     1.13353   0.89622   0.79405   0.00000  Uiso   1.00
N7322  N     1.07854   0.77413   0.74388   0.00000  Uiso   1.00
C7323  C     1.08170   0.87134   0.96599   0.00000  Uiso   1.00
H7324  H     1.07289   0.94471   0.75401   0.00000  Uiso   1.00
C7325  C     1.19525   0.78701   0.88472   0.00000  Uiso   1.00
C7326  C     1.00148   0.94242   0.85203   0.00000  Uiso   1.00
H7327  H     1.05989   0.95255   0.93389   0.00000  Uiso   1.00
C7328  C     1.01132   0.93086   0.80316   0.00000  Uiso   1.00
N7329  N     1.19063   0.78753   0.83212   0.00000  Uiso   1.00
C7330  C     0.89880   0.73313   0.76152   0.00000  Uiso   1.00
C7331  C     1.08828   0.81818   0.83016   0.00000  Uiso   1.00
H7332  H     1.19095   0.87256   0.80067   0.00000  Uiso   1.00
C7333  C     0.98620   0.84661   0.76463   0.00000  Uiso   1.00
C7334  C     1.05556   0.86961   0.94861   0.00000  Uiso   1.00
C7335  C     1.10582   0.86124   0.81391   0.00000  Uiso   1.00
O7336  O     1.15494   0.81554   0.89109   0.00000  Uiso   1.00
N7337  N     1.00803   0.77383   0.86833   0.00000  Uiso   1.00
H7338  H     1.02159   0.84736   0.91074   0.00000  Uiso   1.00
H7339  H     1.09491   0.90264   0.85557   0.00000  Uiso   1.00
C7340  C     1.07672   0.77616   0.85037   0.00000  Uiso   1.00
C7341  C     0.91708   0.95309   0.88772   0.00000  Uiso   1.00
C7342  C     1.02726   0.86708   0.74865   0.00000  Uiso   1.00
H7343  H     1.13988   0.81284   0.74760   0.00000  Uiso   1.00
C7344  C     0.98163   0.88563   0.80851   0.00000  Uiso   1.00
C7345  C     0.92621   0.78611   0.75834   0.00000  Uiso   1.00
H7346  H     1.12990   0.89831   0.85418   0.00000  Uiso   1.00
H7347  H     0.92920   0.73273   0.93910   0.00000  Uiso   1.00
C7348  C     1.21389   0.86043   0.73298   0.00000  Uiso   1.00
C7349  C     0.92619   0.78114   0.91189   0.00000  Uiso   1.00
C7350  C     0.95664   0.87844   0.96721   0.00000  Uiso   1.00
C7351  C     1.08640   0.84626   0.82794   0.00000  Uiso   1.00
C7352  C     1.05788   0.75797   0.86306   0.00000  Uiso   1.00
C7353  C     1.08180   0.75752   0.94736   0.00000  Uiso   1.00
C7354  C     0.92738   0.76704   0.73722   0.00000  Uiso   1.00
H7355  H     1.07700   0.90338   0.77989   0.00000  Uiso   1.00
C7356  C     0.90919   0.80104   0.95288   0.00000  Uiso   1.00
C7357  C     1.06400   0.88328   0.89898   0.00000  Uiso   1.00
C7358  C     1.10200   0.85301   0.94885   0.00000  Uiso   1.00
C7359  C     1.19214   0.78694   0.85587   0.00000  Uiso   1.00
H7360  H     1.09359   0.95371   0.92040   0.00000  Uiso   1.00
C7361  C     1.00105   0.88916   0.78573   0.00000  Uiso   1.00
C7362  C     1.11011   0.83715   0.90326   0.00000  Uiso   1.00
H7363  H     1.06975   0.87587   0.87743   0.00000  Uiso   1.00
C7364  C     0.92596   0.77549   0.94182   0.00000  Uiso   1.00
C7365  C     1.17220   0.96540   0.90205   0.00000  Uiso   1.00
C7366  C     1.20340   0.96101   0.89952   0.00000  Uiso   1.00
C7367  C     1.11269   0.90499   0.84199   0.00000  Uiso   1.00
H7368  H     1.11819   0.92624   0.83839   0.00000  Uiso   1.00
C7369  C     1.16525   0.85577   0.73882   0.00000  Uiso   1.00
C7370  C     1.20705   0.78856   0.94089   0.00000  Uiso   1.00
H7371  H     0.90883   0.78408   0.77419   0.00000  Uiso   1.00
H7372  H     0.95944   0.75784   0.89719   0.00000  Uiso   1.00
H7373  H     1.21123   0.96525   0.87892   0.00000  Uiso   1.00
H7374  H     1.16307   0.93467   0.86988   0.00000  Uiso   1.00
C7375  C     0.91377   0.74834   0.94453   0.00000  Uiso   1.00
C7376  C     1.09192   0.90142   0.96662   0.00000  Uiso   1.00
F7377  F     1.01395   0.74019   0.75722   0.00000  Uiso   1.00
H7378  H     1.10251   0.96731   0.76228   0.00000  Uiso   1.00
H7379  H     1.03938   0.95944   0.78326   0.00000  Uiso   1.00
C7380  C     1.06673   0.73241   0.87092   0.00000  Uiso   1.00
C7381  C     1.06833   0.73746   0.96157   0.00000  Uiso   1.00
H7382  H     0.95241   0.90162   0.96511   0.00000  Uiso   1.00
H7383  H     0.91932   0.93107   0.80053   0.00000  Uiso   1.00
H7384  H     1.13230   0.94503   0.89086   0.00000  Uiso   1.00
O7385  O     0.90859   0.80231   0.83002   0.00000  Uiso   1.00
H7386  H     0.98016   0.87497   0.96341   0.00000  Uiso   1.00
C7387  C     0.89939   0.94017   0.80572   0.00000  Uiso   1.00
O7388  O     0.89119   0.90701   0.90746   0.00000  Uiso   1.00
C7389  C     0.89768   0.80346   0.87777   0.00000  Uiso   1.00
H7390  H     1.14532   0.96524   0.93778   0.00000  Uiso   1.00
H7391  H     1.18174   0.96509   0.94621   0.00000  Uiso   1.00
H7392  H     1.21983   0.73204   0.82973   0.00000  Uiso   1.00
C7393  C     1.07729   0.96574   0.92716   0.00000  Uiso   1.00
N7394  N     0.94717   0.88734   0.73229   0.00000  Uiso   1.00
C7395  C     0.89337   0.95968   0.73991   0.00000  Uiso   1.00
H7396  H     0.93813   0.72408   0.77841   0.00000  Uiso   1.00
H7397  H     1.11129   0.90263   0.95673   0.00000  Uiso   1.00
C7398  C     0.89783   0.96911   0.79262   0.00000  Uiso   1.00
N7399  N     1.04688   0.86672   0.73419   0.00000  Uiso   1.00
H7400  H     0.97844   0.97107   0.74314   0.00000  Uiso   1.00
H7401  H     1.07288   0.96884   0.86200   0.00000  Uiso   1.00
C7402  C     1.05776   0.97041   0.87976   0.00000  Uiso   1.00
C7403  C     1.00130   0.75389   1.01481   0.00000  Uiso   1.00
C7404  C     1.17679   0.93678   1.14938   0.00000  Uiso   1.00
C7405  C     1.15168   0.76638   1.18395   0.00000  Uiso   1.00
H7406  H     0.91954   0.75854   1.04676   0.00000  Uiso   1.00
C7407  C     0.94594   0.79447   1.05352   0.00000  Uiso   1.00
C7408  C     0.94794   0.86892   0.99508   0.00000  Uiso   1.00
C7409  C     1.01343   0.86204   1.20293   0.00000  Uiso   1.00
C7410  C     0.95254   0.83749   1.00045   0.00000  Uiso   1.00
C7411  C     1.17060   0.90867   1.07643   0.00000  Uiso   1.00
H7412  H     0.90062   0.79365   0.97338   0.00000  Uiso   1.00
N7413  N     1.05196   0.87194   1.15121   0.00000  Uiso   1.00
C7414  C     0.95250   0.89377   1.12710   0.00000  Uiso   1.00
O7415  O     1.15807   0.77817   1.06573   0.00000  Uiso   1.00
C7416  C     1.05367   0.85229   1.13737   0.00000  Uiso   1.00
O7417  O     1.04198   0.75408   1.12654   0.00000  Uiso   1.00
N7418  N     1.04961   0.73916   1.05378   0.00000  Uiso   1.00
C7419  C     0.96795   0.90825   1.02579   0.00000  Uiso   1.00
H7420  H     0.90131   0.79186   1.04342   0.00000  Uiso   1.00
C7421  C     0.93566   0.93901   1.11407   0.00000  Uiso   1.00
C7422  C     1.00866   0.94990   1.07184   0.00000  Uiso   1.00
O7423  O     1.04960   0.80281   1.16251   0.00000  Uiso   1.00
H7424  H     1.08876   0.88676   1.20936   0.00000  Uiso   1.00
H7425  H     1.01621   0.81866   0.99588   0.00000  Uiso   1.00
H7426  H     1.13103   0.90725   1.08982   0.00000  Uiso   1.00
H7427  H     0.95627   0.83303   1.07296   0.00000  Uiso   1.00
C7428  C     1.19688   0.92511   1.08006   0.00000  Uiso   1.00
H7429  H     0.90315   0.82214   1.14146   0.00000  Uiso   1.00
H7430  H     1.16270   0.91921   1.14793   0.00000  Uiso   1.00
C7431  C     1.17736   0.77104   1.19565   0.00000  Uiso   1.00
C7432  C     0.95065   0.78353   1.08370   0.00000  Uiso   1.00
H7433  H     0.92920   0.83923   1.05114   0.00000  Uiso   1.00
N7434  N     1.08342   0.90051   1.11666   0.00000  Uiso   1.00
C7435  C     0.98639   0.91631   1.04512   0.00000  Uiso   1.00
C7436  C     0.93271   0.90979   1.11460   0.00000  Uiso   1.00
H7437  H     0.93013   0.74223   1.20804   0.00000  Uiso   1.00
C7438  C     0.90835   0.74567   1.21238   0.00000  Uiso   1.00
C7439  C     1.06183   0.80459   1.07573   0.00000  Uiso   1.00
C7440  C     1.11745   0.74924   1.03352   0.00000  Uiso   1.00
C7441  C     1.08486   0.88061   1.04180   0.00000  Uiso   1.00
O7442  O     1.06954   0.85537   1.08037   0.00000  Uiso   1.00
C7443  C     1.08595   0.88458   1.01290   0.00000  Uiso   1.00
C7444  C     1.07440   0.85533   1.05286   0.00000  Uiso   1.00
H7445  H     1.13591   0.91742   0.99703   0.00000  Uiso   1.00
C7446  C     0.93568   0.80036   1.18469   0.00000  Uiso   1.00
C7447  C     1.06248   0.82892   1.09212   0.00000  Uiso   1.00
C7448  C     1.04422   0.77442   1.20065   0.00000  Uiso   1.00
O7449  O     1.06465   0.80681   1.04648   0.00000  Uiso   1.00
C7450  C     1.19363   0.84935   1.14086   0.00000  Uiso   1.00
C7451  C     1.07025   0.83244   1.03498   0.00000  Uiso   1.00
C7452  C     1.07309   0.83668   1.00697   0.00000  Uiso   1.00
H7453  H     0.97303   0.82501   1.18775   0.00000  Uiso   1.00
C7454  C     0.89373   0.92957   1.09075   0.00000  Uiso   1.00
H7455  H     1.19109   0.94722   1.07417   0.00000  Uiso   1.00
C7456  C     1.14769   0.84948   1.20753   0.00000  Uiso   1.00
C7457  C     1.05744   0.82864   1.12002   0.00000  Uiso   1.00
O7458  O     1.13449   0.74408   1.19093   0.00000  Uiso   1.00
C7459  C     1.09139   0.91053   0.99630   0.00000  Uiso   1.00
O7460  O     1.14906   0.95494   1.18833   0.00000  Uiso   1.00
H7461  H     0.92168   0.77919   1.01686   0.00000  Uiso   1.00
H7462  H     0.91799   0.89744   1.05839   0.00000  Uiso   1.00
C7463  C     0.93581   0.79030   1.21360   0.00000  Uiso   1.00
C7464  C     1.01203   0.89119   1.20330   0.00000  Uiso   1.00
C7465  C     1.05414   0.96564   1.10374   0.00000  Uiso   1.00
C7466  C     1.11770   0.92526   1.00659   0.00000  Uiso   1.00
C7467  C     1.16920   0.84270   1.12516   0.00000  Uiso   1.00
C7468  C     0.98388   0.80631   1.02490   0.00000  Uiso   1.00
H7469  H     0.90324   0.93105   1.15918   0.00000  Uiso   1.00
C7470  C     1.15780   0.74115   1.09977   0.00000  Uiso   1.00
C7471  C     1.04492   0.77756   1.17268   0.00000  Uiso   1.00
H7472  H     0.95029   0.83523   1.16046   0.00000  Uiso   1.00
H7473  H     0.93315   0.75870   1.16545   0.00000  Uiso   1.00
C7474  C     0.89082   0.81123   1.15657   0.00000  Uiso   1.00
C7475  C     0.90809   0.77533   1.22122   0.00000  Uiso   1.00
O7476  O     1.02281   0.90263   1.07887   0.00000  Uiso   1.00
N7477  N     0.90778   0.72690   1.10198   0.00000  Uiso   1.00
C7478  C     1.14709   0.72421   1.20687   0.00000  Uiso   1.00
C7479  C     1.07825   0.86264   0.99605   0.00000  Uiso   1.00
C7480  C     1.16934   0.89618   1.04681   0.00000  Uiso   1.00
H7481  H     0.97019   0.79330   1.09193   0.00000  Uiso   1.00
H7482  H     0.96823   0.74282   1.04152   0.00000  Uiso   1.00
C7483  C     1.19927   0.89141   1.11512   0.00000  Uiso   1.00
C7484  C     1.12202   0.86363   1.22077   0.00000  Uiso   1.00
C7485  C     1.00258   0.90430   1.17901   0.00000  Uiso   1.00
C7486  C     1.00207   0.89533   1.05960   0.00000  Uiso   1.00
O7487  O     1.03582   0.77229   0.98140   0.00000  Uiso   1.00
H7488  H     0.92817   0.86931   1.08090   0.00000  Uiso   1.00
H7489  H     0.95425   0.92372   1.01673   0.00000  Uiso   1.00
C7490  C     0.98068   0.75971   1.03325   0.00000  Uiso   1.00
C7491  C     1.06815   0.91785   1.10976   0.00000  Uiso   1.00
H7492  H     0.93302   0.82563   0.99959   0.00000  Uiso   1.00
O7493  O     1.18912   0.75142   1.21427   0.00000  Uiso   1.00
C7494  C     1.05109   0.80380   1.13306   0.00000  Uiso   1.00
H7495  H     0.93347   0.79149   1.09702   0.00000  Uiso   1.00
C7496  C     1.00644   0.80226   1.00789   0.00000  Uiso   1.00
C7497  C     1.06796   0.93005   1.00115   0.00000  Uiso   1.00
N7498  N     1.10542   0.76843   1.13159   0.00000  Uiso   1.00
C7499  C     0.97841   0.86094   1.03477   0.00000  Uiso   1.00
H7500  H     1.21130   0.91822   1.06285   0.00000  Uiso   1.00
C7501  C     0.96618   0.88094   1.01861   0.00000  Uiso   1.00
O7502  O     0.99226   0.88873   1.15695   0.00000  Uiso   1.00
H7503  H     0.95186   0.76046   1.08485   0.00000  Uiso   1.00
C7504  C     1.18296   0.78391   1.07665   0.00000  Uiso   1.00
C7505  C     0.95207   0.82768   1.18189   0.00000  Uiso   1.00
C7506  C     1.03743   0.74878   1.21174   0.00000  Uiso   1.00
C7507  C     1.18587   0.81039   1.16936   0.00000  Uiso   1.00
H7508  H     1.13280   0.83698   0.97866   0.00000  Uiso   1.00
H7509  H     0.96538   0.82751   0.98480   0.00000  Uiso   1.00
H7510  H     1.13540   0.93483   1.06618   0.00000  Uiso   1.00
H7511  H     1.12022   0.92529   1.02894   0.00000  Uiso   1.00
H7512  H     1.08851   0.89743   1.05606   0.00000  Uiso   1.00
H7513  H     0.90585   0.87479   0.98244   0.00000  Uiso   1.00
C7514  C     1.12241   0.77576   1.14597   0.00000  Uiso   1.00
O7515  O     0.98925   0.94258   1.05207   0.00000  Uiso   1.00
O7516  O     1.15034   0.82189   1.13187   0.00000  Uiso   1.00
C7517  C     1.21030   0.92020   1.10759   0.00000  Uiso   1.00
N7518  N     1.21165   0.78474   0.99426   0.00000  Uiso   1.00
H7519  H     1.18839   0.88530   1.04157   0.00000  Uiso   1.00
H7520  H     1.15288   0.88140   1.04163   0.00000  Uiso   1.00
C7521  C     1.16200   0.86054   1.10383   0.00000  Uiso   1.00
C7522  C     1.04953   0.93761   1.09914   0.00000  Uiso   1.00
C7523  C     1.14404   0.78341   1.16186   0.00000  Uiso   1.00
C7524  C     0.94633   0.77739   1.16624   0.00000  Uiso   1.00
H7525  H     1.14442   0.85666   1.09155   0.00000  Uiso   1.00
C7526  C     1.16110   0.80537   1.15344   0.00000  Uiso   1.00
C7527  C     1.19201   0.77306   1.10244   0.00000  Uiso   1.00
H7528  H     1.16568   0.91406   1.03252   0.00000  Uiso   1.00
C7529  C     1.20888   0.87230   1.13410   0.00000  Uiso   1.00
C7530  C     0.96683   0.83201   1.02808   0.00000  Uiso   1.00
H7531  H     0.89044   0.87417   1.06987   0.00000  Uiso   1.00
O7532  O     1.20255   0.83272   1.16220   0.00000  Uiso   1.00
H7533  H     1.22045   0.96757   0.98906   0.00000  Uiso   1.00
N7534  N     1.11116   0.75712   1.01160   0.00000  Uiso   1.00
C7535  C     1.05232   0.75754   1.06880   0.00000  Uiso   1.00
C7536  C     1.00681   0.93282   1.17618   0.00000  Uiso   1.00
C7537  C     1.05478   0.78032   1.08731   0.00000  Uiso   1.00
C7538  C     0.92129   0.78119   1.03931   0.00000  Uiso   1.00
H7539  H     0.91828   0.89838   1.00871   0.00000  Uiso   1.00
H7540  H     0.95130   0.87168   1.12592   0.00000  Uiso   1.00
C7541  C     1.05010   0.77925   1.11598   0.00000  Uiso   1.00
C7542  C     0.97004   0.78553   1.03721   0.00000  Uiso   1.00
H7543  H     1.06028   0.93312   1.02162   0.00000  Uiso   1.00
C7544  C     1.17233   0.95666   1.17118   0.00000  Uiso   1.00
C7545  C     1.01512   0.77521   1.00192   0.00000  Uiso   1.00
C7546  C     1.20028   0.93956   1.13337   0.00000  Uiso   1.00
C7547  C     0.94785   0.82620   1.05187   0.00000  Uiso   1.00
C7548  C     1.10660   0.88058   1.19860   0.00000  Uiso   1.00
H7549  H     1.00870   0.85288   1.06623   0.00000  Uiso   1.00
C7550  C     1.14671   0.75298   1.07487   0.00000  Uiso   1.00
H7551  H     1.19475   0.80891   1.04171   0.00000  Uiso   1.00
C7552  C     0.99776   0.86816   1.05339   0.00000  Uiso   1.00
C7553  C     1.17699   0.88439   1.09758   0.00000  Uiso   1.00
H7554  H     0.96669   0.76972   1.17148   0.00000  Uiso   1.00
N7555  N     1.01582   0.83834   1.20023   0.00000  Uiso   1.00
C7556  C     1.12589   0.73807   1.05945   0.00000  Uiso   1.00
H7557  H     1.14352   0.94032   1.10053   0.00000  Uiso   1.00
C7558  C     1.14520   0.92391   1.08369   0.00000  Uiso   1.00
C7559  C     1.19524   0.79327   1.18914   0.00000  Uiso   1.00
C7560  C     1.20152   0.80138   1.06235   0.00000  Uiso   1.00
C7561  C     1.22106   0.79496   1.20230   0.00000  Uiso   1.00
C7562  C     1.04087   0.75282   1.15652   0.00000  Uiso   1.00
C7563  C     0.97969   0.93372   1.13768   0.00000  Uiso   1.00
H7564  H     1.14135   0.83390   1.19166   0.00000  Uiso   1.00
C7565  C     1.01315   0.94916   1.19945   0.00000  Uiso   1.00
C7566  C     0.91096   0.95214   1.10508   0.00000  Uiso   1.00
C7567  C     0.95953   0.94972   1.12407   0.00000  Uiso   1.00
C7568  C     1.02734   0.93104   1.08169   0.00000  Uiso   1.00
H7569  H     0.94653   0.78190   1.14363   0.00000  Uiso   1.00
H7570  H     1.07059   0.81680   0.99401   0.00000  Uiso   1.00
O7571  O     1.17876   0.75267   1.11629   0.00000  Uiso   1.00
C7572  C     1.22044   0.95996   1.13731   0.00000  Uiso   1.00
H7573  H     1.04280   0.79187   1.21403   0.00000  Uiso   1.00
C7574  C     0.91870   0.87754   1.00140   0.00000  Uiso   1.00
H7575  H     1.10075   0.86922   1.17958   0.00000  Uiso   1.00
H7576  H     0.89538   0.74026   1.19468   0.00000  Uiso   1.00
H7577  H     1.15953   0.86643   1.19679   0.00000  Uiso   1.00
C7578  C     0.97535   0.90462   1.13980   0.00000  Uiso   1.00
C7579  C     1.21800   0.78033   1.11307   0.00000  Uiso   1.00
C7580  C     0.91017   0.88389   1.07605   0.00000  Uiso   1.00
H7581  H     0.90848   0.86501   1.01687   0.00000  Uiso   1.00
C7582  C     0.90533   0.80218   1.17972   0.00000  Uiso   1.00
H7583  H     1.11544   0.89998   1.19182   0.00000  Uiso   1.00
H7584  H     0.89669   0.87109   1.13208   0.00000  Uiso   1.00
H7585  H     0.96249   0.97281   1.12538   0.00000  Uiso   1.00
O7586  O     0.99982   0.94656   1.15208   0.00000  Uiso   1.00
H7587  H     1.15992   0.90769   1.21824   0.00000  Uiso   1.00
C7588  C     0.90624   0.90193   1.10077   0.00000  Uiso   1.00
H7589  H     0.94120   0.84443   1.19441   0.00000  Uiso   1.00
C7590  C     0.89495   0.95148   1.15623   0.00000  Uiso   1.00
H7591  H     0.95565   0.77585   0.97754   0.00000  Uiso   1.00
H7592  H     1.11483   0.94653   0.99927   0.00000  Uiso   1.00
H7593  H     1.04904   0.92017   0.99170   0.00000  Uiso   1.00
H7594  H     0.89492   0.93126   1.06868   0.00000  Uiso   1.00
H7595  H     1.07036   0.94954   0.98983   0.00000  Uiso   1.00
C7596  C     0.89636   0.96334   1.13081   0.00000  Uiso   1.00
C7597  C     1.03460   0.72707   1.16804   0.00000  Uiso   1.00
O7598  O     1.00744   0.72715   1.00841   0.00000  Uiso   1.00
C7599  C     1.03169   0.72498   1.19646   0.00000  Uiso   1.00
C7600  C     1.17432   0.72746   1.21708   0.00000  Uiso   1.00
H7601  H     0.95330   0.77464   1.21787   0.00000  Uiso   1.00
C7602  C     1.04500   0.74467   0.97766   0.00000  Uiso   1.00
H7603  H     1.20892   0.93654   0.97363   0.00000  Uiso   1.00
H7604  H     0.99064   1.09568   0.43499   0.00000  Uiso   1.00
H7605  H     0.91598   1.14141   0.47086   0.00000  Uiso   1.00
C7606  C     0.89592   1.19607   0.44839   0.00000  Uiso   1.00
H7607  H     1.02905   1.11058   0.45498   0.00000  Uiso   1.00
C7608  C     1.11858   1.10499   0.37152   0.00000  Uiso   1.00
C7609  C     1.07875   1.00614   0.31110   0.00000  Uiso   1.00
C7610  C     1.12118   0.99476   0.24763   0.00000  Uiso   1.00
C7611  C     1.08540   1.03609   0.38206   0.00000  Uiso   1.00
C7612  C     1.16451   1.09404   0.39526   0.00000  Uiso   1.00
C7613  C     1.18296   1.03874   0.23290   0.00000  Uiso   1.00
H7614  H     0.93413   1.14823   0.42726   0.00000  Uiso   1.00
C7615  C     1.09921   1.00898   0.29007   0.00000  Uiso   1.00
H7616  H     1.17250   1.11282   0.29042   0.00000  Uiso   1.00
H7617  H     1.07763   1.09009   0.37217   0.00000  Uiso   1.00
C7618  C     0.99024   1.21999   0.45707   0.00000  Uiso   1.00
H7619  H     0.94292   0.99621   0.43696   0.00000  Uiso   1.00
O7620  O     1.13286   1.02064   0.44936   0.00000  Uiso   1.00
C7621  C     0.99089   1.20201   0.39081   0.00000  Uiso   1.00
C7622  C     0.92357   1.18246   0.45495   0.00000  Uiso   1.00
C7623  C     1.13022   1.12162   0.34879   0.00000  Uiso   1.00
H7624  H     1.14848   1.13289   0.35615   0.00000  Uiso   1.00
C7625  C     1.20806   0.99205   0.30607   0.00000  Uiso   1.00
H7626  H     1.06258   0.98896   0.31086   0.00000  Uiso   1.00
C7627  C     1.06246   0.99279   0.37377   0.00000  Uiso   1.00
C7628  C     1.10686   1.12341   0.39370   0.00000  Uiso   1.00
O7629  O     1.14096   1.03388   0.27195   0.00000  Uiso   1.00
H7630  H     0.99914   1.16494   0.46648   0.00000  Uiso   1.00
O7631  O     0.92650   1.07482   0.24372   0.00000  Uiso   1.00
C7632  C     1.03874   1.03642   0.35677   0.00000  Uiso   1.00
C7633  C     1.01187   1.20349   0.37241   0.00000  Uiso   1.00
C7634  C     1.12218   1.04403   0.31611   0.00000  Uiso   1.00
C7635  C     1.19088   0.99163   0.32954   0.00000  Uiso   1.00
C7636  C     1.00335   1.13781   0.42996   0.00000  Uiso   1.00
C7637  C     1.10540   1.05462   0.36490   0.00000  Uiso   1.00
C7638  C     0.97025   1.17674   0.43392   0.00000  Uiso   1.00
C7639  C     1.10380   1.03935   0.33720   0.00000  Uiso   1.00
H7640  H     1.02767   1.04054   0.37652   0.00000  Uiso   1.00
O7641  O     1.19651   1.02581   0.41215   0.00000  Uiso   1.00
H7642  H     1.04885   1.12523   0.42834   0.00000  Uiso   1.00
H7643  H     1.04534   1.14275   0.38611   0.00000  Uiso   1.00
H7644  H     1.12478   1.13381   0.40285   0.00000  Uiso   1.00
H7645  H     1.03840   1.14605   0.45695   0.00000  Uiso   1.00
H7646  H     0.98227   0.98669   0.34338   0.00000  Uiso   1.00
H7647  H     1.07259   1.04572   0.39877   0.00000  Uiso   1.00
C7648  C     0.89865   1.08321   0.28440   0.00000  Uiso   1.00
C7649  C     1.14131   1.08635   0.38099   0.00000  Uiso   1.00
C7650  C     1.14060   1.01632   0.24922   0.00000  Uiso   1.00
O7651  O     1.12574   1.07363   0.46900   0.00000  Uiso   1.00
C7652  C     1.08225   1.02104   0.33455   0.00000  Uiso   1.00
C7653  C     1.00802   1.15840   0.40746   0.00000  Uiso   1.00
H7654  H     0.93164   1.18547   0.41153   0.00000  Uiso   1.00
H7655  H     1.14762   1.01713   0.38867   0.00000  Uiso   1.00
O7656  O     1.05728   1.18714   0.35679   0.00000  Uiso   1.00
H7657  H     1.21377   1.08045   0.32144   0.00000  Uiso   1.00
C7658  C     1.21724   1.10310   0.32337   0.00000  Uiso   1.00
H7659  H     1.09864   1.02310   0.39417   0.00000  Uiso   1.00
C7660  C     0.90116   1.11726   0.24942   0.00000  Uiso   1.00
C7661  C     1.03101   1.13077   0.44258   0.00000  Uiso   1.00
C7662  C     1.12097   1.02871   0.29203   0.00000  Uiso   1.00
C7663  C     1.08486   1.21871   0.33126   0.00000  Uiso   1.00
C7664  C     0.98701   1.17933   0.40794   0.00000  Uiso   1.00
H7665  H     1.00304   1.10451   0.40183   0.00000  Uiso   1.00
C7666  C     1.12461   0.97549   0.22711   0.00000  Uiso   1.00
H7667  H     1.19911   1.11374   0.33093   0.00000  Uiso   1.00
C7668  C     1.15165   1.03911   0.39127   0.00000  Uiso   1.00
O7669  O     1.09850   0.99427   0.26533   0.00000  Uiso   1.00
H7670  H     1.05044   0.99689   0.39281   0.00000  Uiso   1.00
C7671  C     1.08658   0.98583   0.44116   0.00000  Uiso   1.00
C7672  C     0.98981   1.11197   0.41903   0.00000  Uiso   1.00
H7673  H     0.89437   0.98853   0.41000   0.00000  Uiso   1.00
C7674  C     0.98550   1.15458   0.45039   0.00000  Uiso   1.00
H7675  H     0.97026   1.11650   0.40846   0.00000  Uiso   1.00
H7676  H     1.13748   1.10973   0.33005   0.00000  Uiso   1.00
C7677  C     1.18276   1.07369   0.40499   0.00000  Uiso   1.00
H7678  H     0.90251   1.20970   0.43201   0.00000  Uiso   1.00
C7679  C     0.94306   1.20528   0.46528   0.00000  Uiso   1.00
O7680  O     1.20395   1.08411   0.42104   0.00000  Uiso   1.00
H7681  H     1.17571   0.99326   0.46982   0.00000  Uiso   1.00
N7682  N     0.90552   1.03240   0.30318   0.00000  Uiso   1.00
C7683  C     1.19008   1.10321   0.27990   0.00000  Uiso   1.00
C7684  C     1.09721   1.08528   0.36166   0.00000  Uiso   1.00
H7685  H     1.04371   1.05737   0.34743   0.00000  Uiso   1.00
C7686  C     0.96889   1.20294   0.45034   0.00000  Uiso   1.00
H7687  H     1.18918   1.08045   0.28025   0.00000  Uiso   1.00
C7688  C     1.06614   1.02101   0.36212   0.00000  Uiso   1.00
C7689  C     1.13405   1.05795   0.37965   0.00000  Uiso   1.00
C7690  C     0.90301   1.05507   0.29553   0.00000  Uiso   1.00
H7691  H     0.97290   1.14102   0.46136   0.00000  Uiso   1.00
H7692  H     1.11561   1.13786   0.34202   0.00000  Uiso   1.00
H7693  H     1.21194   1.14720   0.26701   0.00000  Uiso   1.00
H7694  H     1.09005   1.08786   0.34048   0.00000  Uiso   1.00
C7695  C     1.10729   1.20199   0.33151   0.00000  Uiso   1.00
H7696  H     1.09364   1.13964   0.38591   0.00000  Uiso   1.00
C7697  C     1.17758   1.04582   0.40336   0.00000  Uiso   1.00
H7698  H     1.14078   1.05751   0.32104   0.00000  Uiso   1.00
H7699  H     1.16820   1.11594   0.39946   0.00000  Uiso   1.00
H7700  H     1.02382   1.02427   0.34406   0.00000  Uiso   1.00
C7701  C     1.02978   1.15972   0.38815   0.00000  Uiso   1.00
C7702  C     0.93885   1.17141   0.42905   0.00000  Uiso   1.00
N7703  N     1.20033   1.05586   0.23399   0.00000  Uiso   1.00
F7704  F     1.19718   1.00757   0.35210   0.00000  Uiso   1.00
C7705  C     1.06096   1.21313   0.34355   0.00000  Uiso   1.00
O7706  O     1.03878   1.00189   0.46895   0.00000  Uiso   1.00
C7707  C     0.90981   1.09194   0.25963   0.00000  Uiso   1.00
C7708  C     1.16299   1.01740   0.23034   0.00000  Uiso   1.00
H7709  H     1.09494   1.11178   0.40894   0.00000  Uiso   1.00
H7710  H     1.18611   1.11150   0.25758   0.00000  Uiso   1.00
C7711  C     1.20240   0.97633   0.28251   0.00000  Uiso   1.00
C7712  C     0.93694   0.97879   0.45044   0.00000  Uiso   1.00
H7713  H     0.97866   0.97639   0.37970   0.00000  Uiso   1.00
H7714  H     0.91088   1.02184   0.46501   0.00000  Uiso   1.00
C7715  C     1.03324   1.18376   0.37262   0.00000  Uiso   1.00
N7716  N     1.12681   1.18896   0.33250   0.00000  Uiso   1.00
C7717  C     1.21789   0.98022   0.25843   0.00000  Uiso   1.00
C7718  C     1.08441   1.01234   0.45509   0.00000  Uiso   1.00
C7719  C     1.10675   1.02990   0.45675   0.00000  Uiso   1.00
C7720  C     1.21837   1.03592   0.42750   0.00000  Uiso   1.00
C7721  C     1.21819   1.11236   0.29245   0.00000  Uiso   1.00
H7722  H     1.05204   0.97752   0.36157   0.00000  Uiso   1.00
H7723  H     1.01031   1.21507   0.44678   0.00000  Uiso   1.00
C7724  C     1.10383   1.05619   0.46588   0.00000  Uiso   1.00
O7725  O     0.91072   1.12862   0.22520   0.00000  Uiso   1.00
C7726  C     1.22110   1.06459   0.43219   0.00000  Uiso   1.00
C7727  C     1.15264   1.03176   0.46631   0.00000  Uiso   1.00
C7728  C     1.05901   1.02069   0.46667   0.00000  Uiso   1.00
H7729  H     1.21626   1.15892   0.30086   0.00000  Uiso   1.00
H7730  H     1.08046   0.98368   0.38097   0.00000  Uiso   1.00
H7731  H     0.97517   1.21738   0.39233   0.00000  Uiso   1.00
H7732  H     1.12688   1.22128   0.23036   0.00000  Uiso   1.00
C7733  C     1.21997   1.08754   0.62789   0.00000  Uiso   1.00
O7734  O     0.92844   1.16794   0.68085   0.00000  Uiso   1.00
O7735  O     0.91633   0.99354   0.59998   0.00000  Uiso   1.00
C7736  C     0.92058   1.06304   0.49994   0.00000  Uiso   1.00
H7737  H     1.12847   1.13912   0.65545   0.00000  Uiso   1.00
C7738  C     1.09591   1.14109   0.70683   0.00000  Uiso   1.00
O7739  O     1.09941   1.02282   0.54279   0.00000  Uiso   1.00
C7740  C     0.89789   0.99326   0.62197   0.00000  Uiso   1.00
C7741  C     0.99200   1.13728   0.65192   0.00000  Uiso   1.00
O7742  O     0.89936   1.06470   0.72151   0.00000  Uiso   1.00
H7743  H     1.14613   1.03666   0.53364   0.00000  Uiso   1.00
H7744  H     1.02370   1.20659   0.70690   0.00000  Uiso   1.00
C7745  C     0.94070   1.16112   0.55531   0.00000  Uiso   1.00
H7746  H     1.12696   1.15387   0.55713   0.00000  Uiso   1.00
H7747  H     1.01900   1.16098   0.71548   0.00000  Uiso   1.00
H7748  H     1.14577   1.02364   0.61016   0.00000  Uiso   1.00
H7749  H     1.08592   1.00074   0.66544   0.00000  Uiso   1.00
C7750  C     1.11789   0.97604   0.54618   0.00000  Uiso   1.00
H7751  H     0.92868   1.17290   0.62334   0.00000  Uiso   1.00
C7752  C     0.91796   1.09268   0.68688   0.00000  Uiso   1.00
H7753  H     1.00440   1.18935   0.51135   0.00000  Uiso   1.00
C7754  C     1.00250   1.03824   0.68341   0.00000  Uiso   1.00
H7755  H     1.18483   0.99342   0.63432   0.00000  Uiso   1.00
C7756  C     1.14517   0.97641   0.64445   0.00000  Uiso   1.00
C7757  C     0.91732   1.03036   0.53369   0.00000  Uiso   1.00
H7758  H     1.21047   1.02640   0.56320   0.00000  Uiso   1.00
H7759  H     0.90289   1.09999   0.62363   0.00000  Uiso   1.00
H7760  H     1.14702   1.18719   0.61337   0.00000  Uiso   1.00
C7761  C     1.04446   1.02353   0.59723   0.00000  Uiso   1.00
C7762  C     0.91147   1.19780   0.57329   0.00000  Uiso   1.00
N7763  N     1.11429   1.21079   0.67087   0.00000  Uiso   1.00
N7764  N     0.92454   1.04599   0.65940   0.00000  Uiso   1.00
C7765  C     1.09991   1.19715   0.57851   0.00000  Uiso   1.00
H7766  H     1.17184   1.05770   0.56223   0.00000  Uiso   1.00
C7767  C     1.12087   1.00475   0.54262   0.00000  Uiso   1.00
H7768  H     1.16866   1.09158   0.50101   0.00000  Uiso   1.00
C7769  C     0.93485   1.17788   0.58056   0.00000  Uiso   1.00
C7770  C     0.93004   1.03295   0.50573   0.00000  Uiso   1.00
H7771  H     1.11036   1.14176   0.62194   0.00000  Uiso   1.00
C7772  C     0.95226   1.00405   0.70975   0.00000  Uiso   1.00
H7773  H     1.17377   1.20068   0.59275   0.00000  Uiso   1.00
H7774  H     0.92649   1.14156   0.60633   0.00000  Uiso   1.00
H7775  H     1.12447   0.99457   0.60547   0.00000  Uiso   1.00
H7776  H     1.03036   1.16836   0.50005   0.00000  Uiso   1.00
C7777  C     1.14633   1.01452   0.53670   0.00000  Uiso   1.00
H7778  H     0.95347   1.14367   0.56182   0.00000  Uiso   1.00
H7779  H     1.03487   1.20465   0.49891   0.00000  Uiso   1.00
H7780  H     1.06586   1.19778   0.66111   0.00000  Uiso   1.00
C7781  C     0.95476   1.16572   0.66825   0.00000  Uiso   1.00
C7782  C     1.00836   1.03692   0.48987   0.00000  Uiso   1.00
H7783  H     1.00122   1.11803   0.64785   0.00000  Uiso   1.00
C7784  C     1.12683   1.01277   0.61758   0.00000  Uiso   1.00
C7785  C     1.18897   1.07081   0.55409   0.00000  Uiso   1.00
C7786  C     1.07758   1.06527   0.47561   0.00000  Uiso   1.00
H7787  H     1.19138   1.07345   0.67478   0.00000  Uiso   1.00
H7788  H     0.98163   1.06441   0.51173   0.00000  Uiso   1.00
C7789  C     0.99483   1.01139   0.68423   0.00000  Uiso   1.00
C7790  C     1.02495   1.22060   0.68981   0.00000  Uiso   1.00
C7791  C     1.04234   1.15739   0.71293   0.00000  Uiso   1.00
C7792  C     1.01473   1.04914   0.65917   0.00000  Uiso   1.00
H7793  H     1.11790   1.13545   0.70763   0.00000  Uiso   1.00
C7794  C     0.98296   1.04449   0.50112   0.00000  Uiso   1.00
H7795  H     1.08874   0.98248   0.63319   0.00000  Uiso   1.00
C7796  C     1.00018   0.99332   0.66189   0.00000  Uiso   1.00
C7797  C     1.07844   1.14283   0.68425   0.00000  Uiso   1.00
C7798  C     1.01787   1.03248   0.63546   0.00000  Uiso   1.00
C7799  C     1.06217   1.03136   0.57652   0.00000  Uiso   1.00
C7800  C     0.89244   1.06794   0.51134   0.00000  Uiso   1.00
H7801  H     0.92083   1.06644   0.47818   0.00000  Uiso   1.00
C7802  C     1.13129   1.19544   0.57143   0.00000  Uiso   1.00
C7803  C     0.98271   1.00457   0.71230   0.00000  Uiso   1.00
C7804  C     1.05171   1.15208   0.68653   0.00000  Uiso   1.00
C7805  C     1.07528   1.09278   0.48425   0.00000  Uiso   1.00
C7806  C     1.09895   0.98816   0.65301   0.00000  Uiso   1.00
C7807  C     1.10846   1.14688   0.64471   0.00000  Uiso   1.00
C7808  C     0.92290   1.01196   0.55394   0.00000  Uiso   1.00
H7809  H     0.97680   1.08816   0.69517   0.00000  Uiso   1.00
C7810  C     1.16995   1.07088   0.49193   0.00000  Uiso   1.00
C7811  C     0.96169   1.18866   0.59375   0.00000  Uiso   1.00
C7812  C     1.17407   1.01549   0.47569   0.00000  Uiso   1.00
H7813  H     1.03831   1.14468   0.54880   0.00000  Uiso   1.00
C7814  C     0.93517   0.98694   0.48045   0.00000  Uiso   1.00
H7815  H     0.94319   1.00125   0.55208   0.00000  Uiso   1.00
H7816  H     1.07414   1.19711   0.51117   0.00000  Uiso   1.00
H7817  H     1.05803   1.14293   0.61792   0.00000  Uiso   1.00
H7818  H     1.01865   1.07097   0.65698   0.00000  Uiso   1.00
C7819  C     0.91621   1.14227   0.68868   0.00000  Uiso   1.00
C7820  C     1.00891   1.15933   0.65737   0.00000  Uiso   1.00
C7821  C     1.03942   0.99571   0.59857   0.00000  Uiso   1.00
H7822  H     1.11242   1.09985   0.67132   0.00000  Uiso   1.00
C7823  C     1.16949   0.99998   0.53325   0.00000  Uiso   1.00
H7824  H     0.98407   1.13000   0.71584   0.00000  Uiso   1.00
H7825  H     1.10831   1.17001   0.64516   0.00000  Uiso   1.00
H7826  H     1.04464   1.11809   0.64008   0.00000  Uiso   1.00
H7827  H     0.95991   1.21038   0.66839   0.00000  Uiso   1.00
C7828  C     1.09514   1.10169   0.65715   0.00000  Uiso   1.00
C7829  C     0.92104   1.16277   0.60493   0.00000  Uiso   1.00
H7830  H     0.97486   1.17251   0.60183   0.00000  Uiso   1.00
C7831  C     1.21417   1.02868   0.54038   0.00000  Uiso   1.00
H7832  H     1.07974   1.08651   0.66467   0.00000  Uiso   1.00
C7833  C     1.08467   1.13211   0.65560   0.00000  Uiso   1.00
H7834  H     1.09911   1.09343   0.63573   0.00000  Uiso   1.00
H7835  H     0.94825   0.98593   0.69381   0.00000  Uiso   1.00
O7836  O     1.03124   1.05648   0.48984   0.00000  Uiso   1.00
H7837  H     1.15570   1.03390   0.65841   0.00000  Uiso   1.00
C7838  C     1.04083   1.15834   0.65617   0.00000  Uiso   1.00
H7839  H     1.13945   1.01982   0.68624   0.00000  Uiso   1.00
C7840  C     1.05674   1.13724   0.63969   0.00000  Uiso   1.00
O7841  O     0.94880   1.11751   0.65728   0.00000  Uiso   1.00
H7842  H     1.10845   1.02559   0.61493   0.00000  Uiso   1.00
H7843  H     1.21399   1.04599   0.68533   0.00000  Uiso   1.00
H7844  H     1.08961   1.17747   0.58481   0.00000  Uiso   1.00
C7845  C     1.13449   1.02613   0.66542   0.00000  Uiso   1.00
C7846  C     0.96003   1.02798   0.49788   0.00000  Uiso   1.00
O7847  O     1.02052   0.98603   0.61828   0.00000  Uiso   1.00
C7848  C     1.04595   1.18998   0.65166   0.00000  Uiso   1.00
H7849  H     0.95710   1.20369   0.61215   0.00000  Uiso   1.00
C7850  C     0.92710   1.11870   0.67695   0.00000  Uiso   1.00
H7851  H     0.94358   1.15727   0.49082   0.00000  Uiso   1.00
H7852  H     0.92161   1.15556   0.54566   0.00000  Uiso   1.00
H7853  H     0.93507   1.07808   0.50883   0.00000  Uiso   1.00
C7854  C     0.89694   1.14024   0.71007   0.00000  Uiso   1.00
O7855  O     1.03092   1.04364   0.61316   0.00000  Uiso   1.00
H7856  H     1.16131   1.16199   0.56642   0.00000  Uiso   1.00
C7857  C     1.14293   1.16956   0.55551   0.00000  Uiso   1.00
C7858  C     0.96429   1.14094   0.65711   0.00000  Uiso   1.00
H7859  H     1.11909   1.04285   0.66629   0.00000  Uiso   1.00
C7860  C     1.04069   1.18843   0.53776   0.00000  Uiso   1.00
H7861  H     0.94999   1.17398   0.53918   0.00000  Uiso   1.00
C7862  C     1.12575   1.00183   0.64681   0.00000  Uiso   1.00
C7863  C     0.99855   1.18590   0.66111   0.00000  Uiso   1.00
C7864  C     1.21071   1.11329   0.70613   0.00000  Uiso   1.00
C7865  C     1.07230   1.18972   0.53257   0.00000  Uiso   1.00
C7866  C     1.06612   1.05877   0.57187   0.00000  Uiso   1.00
C7867  C     0.91653   1.01169   0.48448   0.00000  Uiso   1.00
C7868  C     1.05521   1.04714   0.47636   0.00000  Uiso   1.00
H7869  H     1.22181   1.13174   0.69705   0.00000  Uiso   1.00
C7870  C     0.90673   1.00896   0.57764   0.00000  Uiso   1.00
H7871  H     1.19776   1.08244   0.62348   0.00000  Uiso   1.00
C7872  C     1.19698   1.00810   0.52271   0.00000  Uiso   1.00
N7873  N     1.06930   1.08279   0.56836   0.00000  Uiso   1.00
C7874  C     1.15007   1.05964   0.47478   0.00000  Uiso   1.00
C7875  C     1.21399   1.06744   0.67912   0.00000  Uiso   1.00
H7876  H     1.07859   1.16843   0.52943   0.00000  Uiso   1.00
C7877  C     1.07979   1.01252   0.56204   0.00000  Uiso   1.00
C7878  C     1.01267   1.00397   0.63809   0.00000  Uiso   1.00
C7879  C     1.18974   1.02571   0.49788   0.00000  Uiso   1.00
C7880  C     1.02234   1.20764   0.66208   0.00000  Uiso   1.00
C7881  C     1.18917   1.05367   0.50478   0.00000  Uiso   1.00
H7882  H     1.19117   1.11487   0.69428   0.00000  Uiso   1.00
H7883  H     1.01115   1.16657   0.56291   0.00000  Uiso   1.00
C7884  C     1.20582   1.05804   0.53096   0.00000  Uiso   1.00
H7885  H     0.94364   1.02282   0.69973   0.00000  Uiso   1.00
H7886  H     1.05032   1.19273   0.62883   0.00000  Uiso   1.00
H7887  H     1.05980   1.00079   0.70416   0.00000  Uiso   1.00
H7888  H     1.04464   1.16749   0.57636   0.00000  Uiso   1.00
C7889  C     0.92258   1.06752   0.67168   0.00000  Uiso   1.00
C7890  C     1.03280   1.16430   0.55652   0.00000  Uiso   1.00
C7891  C     0.97070   1.18951   0.66484   0.00000  Uiso   1.00
C7892  C     1.01277   1.01038   0.47950   0.00000  Uiso   1.00
C7893  C     0.96379   1.00186   0.48581   0.00000  Uiso   1.00
C7894  C     1.21098   0.97929   0.51572   0.00000  Uiso   1.00
H7895  H     0.90705   1.09862   0.53952   0.00000  Uiso   1.00
N7896  N     1.07356   1.11560   0.49182   0.00000  Uiso   1.00
C7897  C     1.17239   0.97576   0.63755   0.00000  Uiso   1.00
H7898  H     1.15071   1.17095   0.53428   0.00000  Uiso   1.00
C7899  C     1.15185   1.20200   0.59627   0.00000  Uiso   1.00
H7900  H     1.22145   1.11063   0.62799   0.00000  Uiso   1.00
C7901  C     1.02596   1.18689   0.50997   0.00000  Uiso   1.00
H7902  H     0.89751   1.00326   0.49446   0.00000  Uiso   1.00
H7903  H     1.21509   1.03091   0.63002   0.00000  Uiso   1.00
H7904  H     0.90772   1.16920   0.49476   0.00000  Uiso   1.00
C7905  C     1.03524   1.21573   0.55141   0.00000  Uiso   1.00
H7906  H     1.10014   1.20982   0.59734   0.00000  Uiso   1.00
C7907  C     1.08559   1.20932   0.55375   0.00000  Uiso   1.00
H7908  H     1.18010   1.09056   0.54888   0.00000  Uiso   1.00
H7909  H     1.21008   1.20782   0.66498   0.00000  Uiso   1.00
H7910  H     0.97489   1.19959   0.58023   0.00000  Uiso   1.00
C7911  C     0.99934   1.05263   0.71196   0.00000  Uiso   1.00
H7912  H     1.20349   1.07379   0.57263   0.00000  Uiso   1.00
H7913  H     1.05640   1.04229   0.71304   0.00000  Uiso   1.00
C7914  C     1.22164   1.21813   0.68291   0.00000  Uiso   1.00
C7915  C     0.89283   1.04654   0.53513   0.00000  Uiso   1.00
H7916  H     1.12571   0.98149   0.70244   0.00000  Uiso   1.00
C7917  C     0.90222   1.09085   0.70985   0.00000  Uiso   1.00
C7918  C     1.07631   0.98458   0.56671   0.00000  Uiso   1.00
H7919  H     0.95600   1.06409   0.71408   0.00000  Uiso   1.00
C7920  C     0.97593   1.07549   0.71412   0.00000  Uiso   1.00
C7921  C     1.12147   1.21975   0.69241   0.00000  Uiso   1.00
C7922  C     0.89225   1.09719   0.52240   0.00000  Uiso   1.00
H7923  H     0.99111   1.22223   0.54615   0.00000  Uiso   1.00
H7924  H     1.20729   0.97385   0.49457   0.00000  Uiso   1.00
C7925  C     1.05605   0.97677   0.58378   0.00000  Uiso   1.00
C7926  C     0.92344   1.16129   0.47900   0.00000  Uiso   1.00
H7927  H     0.90063   1.10855   0.50555   0.00000  Uiso   1.00
H7928  H     1.22104   1.09878   0.51971   0.00000  Uiso   1.00
C7929  C     0.98961   0.99303   0.47906   0.00000  Uiso   1.00
C7930  C     1.07084   0.99043   0.72016   0.00000  Uiso   1.00
C7931  C     1.13481   1.22055   0.55250   0.00000  Uiso   1.00
H7932  H     1.21279   0.97641   0.57217   0.00000  Uiso   1.00
C7933  C     0.90456   0.97748   0.64539   0.00000  Uiso   1.00
C7934  C     0.89070   1.11466   0.72127   0.00000  Uiso   1.00
H7935  H     0.89061   1.08773   0.59393   0.00000  Uiso   1.00
H7936  H     1.14737   1.22160   0.60564   0.00000  Uiso   1.00
C7937  C     0.91365   1.22234   0.55992   0.00000  Uiso   1.00
C7938  C     1.05876   1.18500   0.80559   0.00000  Uiso   1.00
H7939  H     1.21592   0.97455   0.91312   0.00000  Uiso   1.00
C7940  C     0.98558   1.09941   0.89050   0.00000  Uiso   1.00
C7941  C     0.94676   1.10086   0.85291   0.00000  Uiso   1.00
C7942  C     0.97476   1.12271   0.73530   0.00000  Uiso   1.00
C7943  C     0.99152   1.02839   0.73056   0.00000  Uiso   1.00
H7944  H     0.97598   1.07666   0.82958   0.00000  Uiso   1.00
O7945  O     0.89494   1.00323   0.88837   0.00000  Uiso   1.00
H7946  H     1.12593   1.00140   0.96049   0.00000  Uiso   1.00
H7947  H     0.94188   1.06197   0.82834   0.00000  Uiso   1.00
C7948  C     1.08008   1.19512   0.82394   0.00000  Uiso   1.00
C7949  C     0.97410   1.12273   0.93338   0.00000  Uiso   1.00
C7950  C     1.05071   1.05940   0.72673   0.00000  Uiso   1.00
H7951  H     1.10510   1.00209   0.88237   0.00000  Uiso   1.00
C7952  C     1.14357   1.18285   0.78378   0.00000  Uiso   1.00
C7953  C     1.06743   0.98593   0.90513   0.00000  Uiso   1.00
H7954  H     0.96527   1.05846   0.85597   0.00000  Uiso   1.00
C7955  C     0.91546   1.10444   0.85564   0.00000  Uiso   1.00
H7956  H     1.21160   1.16062   0.74557   0.00000  Uiso   1.00
C7957  C     1.08710   1.15295   0.73148   0.00000  Uiso   1.00
H7958  H     0.89180   1.00607   0.82053   0.00000  Uiso   1.00
O7959  O     0.95951   1.00881   0.94025   0.00000  Uiso   1.00
H7960  H     1.18876   1.17593   0.91341   0.00000  Uiso   1.00
H7961  H     1.14598   1.05715   0.90684   0.00000  Uiso   1.00
N7962  N     1.08030   1.06930   0.94609   0.00000  Uiso   1.00
H7963  H     1.10212   1.01446   0.91680   0.00000  Uiso   1.00
H7964  H     1.13281   1.03529   0.94750   0.00000  Uiso   1.00
O7965  O     1.00518   1.03403   0.97165   0.00000  Uiso   1.00
C7966  C     1.02400   1.11276   0.95419   0.00000  Uiso   1.00
C7967  C     1.06696   1.17495   0.78047   0.00000  Uiso   1.00
C7968  C     1.17168   1.12063   0.74138   0.00000  Uiso   1.00
C7969  C     0.93769   1.11165   0.90069   0.00000  Uiso   1.00
H7970  H     1.00627   1.02891   0.80257   0.00000  Uiso   1.00
H7971  H     0.95666   1.06093   0.76680   0.00000  Uiso   1.00
H7972  H     0.98016   1.13447   0.75394   0.00000  Uiso   1.00
H7973  H     0.95121   1.14402   0.84313   0.00000  Uiso   1.00
C7974  C     0.98172   1.09175   0.74057   0.00000  Uiso   1.00
H7975  H     1.05289   1.02075   0.95315   0.00000  Uiso   1.00
C7976  C     0.95600   1.02415   0.96565   0.00000  Uiso   1.00
H7977  H     1.01352   1.02031   0.85092   0.00000  Uiso   1.00
C7978  C     0.89640   1.07783   0.89701   0.00000  Uiso   1.00
N7979  N     1.14034   1.00487   0.74989   0.00000  Uiso   1.00
C7980  C     1.20669   1.18860   0.90522   0.00000  Uiso   1.00
H7981  H     1.16830   1.18532   0.84800   0.00000  Uiso   1.00
H7982  H     1.00253   1.09340   0.87624   0.00000  Uiso   1.00
O7983  O     1.04718   1.16798   0.76040   0.00000  Uiso   1.00
H7984  H     0.89349   1.11818   0.95310   0.00000  Uiso   1.00
C7985  C     0.96042   1.12431   0.83562   0.00000  Uiso   1.00
H7986  H     1.01056   1.02239   0.74234   0.00000  Uiso   1.00
H7987  H     1.09615   1.18211   0.96598   0.00000  Uiso   1.00
H7988  H     0.93058   1.13148   0.93947   0.00000  Uiso   1.00
C7989  C     1.20990   1.08277   0.77808   0.00000  Uiso   1.00
C7990  C     1.16404   1.00714   0.93437   0.00000  Uiso   1.00
H7991  H     0.97422   1.03481   0.74495   0.00000  Uiso   1.00
C7992  C     1.03532   1.01412   0.94070   0.00000  Uiso   1.00
C7993  C     1.03985   1.00194   0.82102   0.00000  Uiso   1.00
O7994  O     1.20705   1.21576   0.94640   0.00000  Uiso   1.00
H7995  H     1.15943   1.10321   0.73484   0.00000  Uiso   1.00
H7996  H     0.98347   1.12268   0.83707   0.00000  Uiso   1.00
C7997  C     1.08908   1.00831   0.89854   0.00000  Uiso   1.00
H7998  H     1.08042   1.02112   0.81714   0.00000  Uiso   1.00
C7999  C     1.04051   0.99923   0.91575   0.00000  Uiso   1.00
H8000  H     1.20338   1.12595   0.88548   0.00000  Uiso   1.00
H8001  H     1.20403   1.18329   0.81816   0.00000  Uiso   1.00
H8002  H     0.93752   0.97306   0.77243   0.00000  Uiso   1.00
C8003  C     1.20457   1.16247   0.85762   0.00000  Uiso   1.00
C8004  C     1.13502   1.04454   0.80922   0.00000  Uiso   1.00
C8005  C     1.14818   1.04326   0.86436   0.00000  Uiso   1.00
C8006  C     1.03428   1.00950   0.85105   0.00000  Uiso   1.00
C8007  C     1.21561   1.02395   0.93301   0.00000  Uiso   1.00
O8008  O     1.01949   1.10250   0.92732   0.00000  Uiso   1.00
O8009  O     1.14980   1.02080   0.81844   0.00000  Uiso   1.00
C8010  C     1.21549   1.21247   0.91960   0.00000  Uiso   1.00
C8011  C     1.08208   1.19637   0.95619   0.00000  Uiso   1.00
C8012  C     1.10458   1.10996   0.83376   0.00000  Uiso   1.00
H8013  H     1.19949   1.09622   0.79264   0.00000  Uiso   1.00
H8014  H     1.20651   1.11818   0.85310   0.00000  Uiso   1.00
H8015  H     1.02760   1.01159   0.77894   0.00000  Uiso   1.00
C8016  C     1.21485   1.13380   0.86670   0.00000  Uiso   1.00
C8017  C     1.07045   1.00089   0.81064   0.00000  Uiso   1.00
N8018  N     1.16625   1.18512   0.77901   0.00000  Uiso   1.00
O8019  O     1.12740   1.21168   0.83055   0.00000  Uiso   1.00
H8020  H     0.92546   1.04673   0.88177   0.00000  Uiso   1.00
H8021  H     1.02430   1.11599   0.77585   0.00000  Uiso   1.00
H8022  H     0.91025   1.12140   0.84383   0.00000  Uiso   1.00
H8023  H     0.97421   0.99216   0.89305   0.00000  Uiso   1.00
C8024  C     1.17338   1.16334   0.85461   0.00000  Uiso   1.00
C8025  C     1.03142   1.09968   0.76225   0.00000  Uiso   1.00
H8026  H     1.07178   0.99994   0.78755   0.00000  Uiso   1.00
O8027  O     1.10598   1.15648   0.75364   0.00000  Uiso   1.00
C8028  C     1.01272   1.08686   0.74376   0.00000  Uiso   1.00
C8029  C     1.05843   1.08994   0.76396   0.00000  Uiso   1.00
C8030  C     1.02833   1.02034   0.79908   0.00000  Uiso   1.00
H8031  H     0.94320   1.00092   0.72985   0.00000  Uiso   1.00
H8032  H     1.04718   1.02568   0.85875   0.00000  Uiso   1.00
C8033  C     1.06896   1.06842   0.74634   0.00000  Uiso   1.00
C8034  C     1.09547   1.17126   0.77497   0.00000  Uiso   1.00
H8035  H     1.16531   1.14833   0.83790   0.00000  Uiso   1.00
C8036  C     1.11182   1.08816   0.81663   0.00000  Uiso   1.00
H8037  H     1.08016   1.02654   0.88944   0.00000  Uiso   1.00
C8038  C     1.14258   1.01731   0.95624   0.00000  Uiso   1.00
O8039  O     1.09532   1.05987   0.74764   0.00000  Uiso   1.00
H8040  H     1.04234   1.03843   0.79856   0.00000  Uiso   1.00
C8041  C     1.15277   1.01912   0.84659   0.00000  Uiso   1.00
C8042  C     1.10682   1.06375   0.77447   0.00000  Uiso   1.00
C8043  C     1.15786   1.01469   0.90431   0.00000  Uiso   1.00
H8044  H     0.94030   1.09247   0.76227   0.00000  Uiso   1.00
H8045  H     0.95418   1.12280   0.81333   0.00000  Uiso   1.00
C8046  C     0.98635   1.00731   0.93176   0.00000  Uiso   1.00
C8047  C     1.21298   1.09019   0.74968   0.00000  Uiso   1.00
C8048  C     1.21484   1.18426   0.87825   0.00000  Uiso   1.00
H8049  H     1.08694   1.19576   0.93408   0.00000  Uiso   1.00
C8050  C     1.13048   1.06791   0.82532   0.00000  Uiso   1.00
C8051  C     1.12602   1.04413   0.78266   0.00000  Uiso   1.00
C8052  C     0.96152   1.08342   0.76386   0.00000  Uiso   1.00
C8053  C     1.00672   1.13053   0.96802   0.00000  Uiso   1.00
N8054  N     1.09862   1.12719   0.84919   0.00000  Uiso   1.00
C8055  C     1.00764   1.01998   0.94674   0.00000  Uiso   1.00
C8056  C     1.02684   0.97373   0.82174   0.00000  Uiso   1.00
O8057  O     1.14107   1.06849   0.85225   0.00000  Uiso   1.00
H8058  H     0.93839   0.98121   0.81018   0.00000  Uiso   1.00
O8059  O     1.07574   1.10303   0.78459   0.00000  Uiso   1.00
N8060  N     1.00819   1.18766   0.81664   0.00000  Uiso   1.00
C8061  C     1.03218   1.18619   0.81216   0.00000  Uiso   1.00
C8062  C     0.95811   1.10455   0.88176   0.00000  Uiso   1.00
H8063  H     0.90328   1.08720   0.84639   0.00000  Uiso   1.00
C8064  C     1.19072   1.02067   0.94614   0.00000  Uiso   1.00
C8065  C     0.90779   1.01034   0.96457   0.00000  Uiso   1.00
C8066  C     0.95706   1.07322   0.84130   0.00000  Uiso   1.00
C8067  C     1.09835   1.08496   0.79151   0.00000  Uiso   1.00
C8068  C     1.13269   1.02227   0.76526   0.00000  Uiso   1.00
C8069  C     1.16398   0.99244   0.88719   0.00000  Uiso   1.00
C8070  C     0.94529   1.12459   0.92453   0.00000  Uiso   1.00
C8071  C     0.90461   1.05092   0.88976   0.00000  Uiso   1.00
C8072  C     1.03226   0.98388   0.86900   0.00000  Uiso   1.00
C8073  C     0.99282   0.99616   0.90648   0.00000  Uiso   1.00
C8074  C     0.90882   1.10642   0.88785   0.00000  Uiso   1.00
C8075  C     1.02289   1.06660   0.72667   0.00000  Uiso   1.00
C8076  C     1.11523   1.18335   0.79213   0.00000  Uiso   1.00
C8077  C     1.15073   1.03925   0.89237   0.00000  Uiso   1.00
H8078  H     0.97093   1.08927   0.78472   0.00000  Uiso   1.00
C8079  C     1.01965   0.99386   0.89765   0.00000  Uiso   1.00
C8080  C     1.10770   1.19761   0.81516   0.00000  Uiso   1.00
H8081  H     1.08537   0.97907   0.94366   0.00000  Uiso   1.00
C8082  C     1.15867   0.99364   0.85926   0.00000  Uiso   1.00
C8083  C     1.04864   1.10476   0.96815   0.00000  Uiso   1.00
C8084  C     0.99357   1.10620   0.91756   0.00000  Uiso   1.00
O8085  O     0.98008   1.13738   0.95671   0.00000  Uiso   1.00
H8086  H     1.15857   1.16074   0.87138   0.00000  Uiso   1.00
H8087  H     1.21302   1.14164   0.77432   0.00000  Uiso   1.00
C8088  C     0.94366   1.21401   0.74790   0.00000  Uiso   1.00
H8089  H     0.95191   1.12703   0.73368   0.00000  Uiso   1.00
O8090  O     1.07114   1.20410   0.84954   0.00000  Uiso   1.00
H8091  H     1.06096   1.18812   0.95476   0.00000  Uiso   1.00
C8092  C     1.08993   1.21878   0.86483   0.00000  Uiso   1.00
H8093  H     0.92427   1.21513   0.73633   0.00000  Uiso   1.00
H8094  H     1.08263   0.98300   0.81820   0.00000  Uiso   1.00
C8095  C     1.21868   1.13989   0.75233   0.00000  Uiso   1.00
H8096  H     0.89761   1.01968   0.74738   0.00000  Uiso   1.00
C8097  C     1.06571   1.08555   0.95567   0.00000  Uiso   1.00
H8098  H     1.16825   1.12397   0.76550   0.00000  Uiso   1.00
H8099  H     1.21980   1.01877   0.91079   0.00000  Uiso   1.00
C8100  C     1.21860   1.17213   0.83071   0.00000  Uiso   1.00
H8101  H     1.05568   0.98732   0.73554   0.00000  Uiso   1.00
H8102  H     0.92310   1.00765   0.78819   0.00000  Uiso   1.00
C8103  C     1.20363   1.11791   0.73702   0.00000  Uiso   1.00
H8104  H     1.16370   1.13912   0.73237   0.00000  Uiso   1.00
H8105  H     0.94138   1.19786   0.76424   0.00000  Uiso   1.00
H8106  H     1.16296   0.97488   0.84733   0.00000  Uiso   1.00
H8107  H     1.08536   1.00445   0.72976   0.00000  Uiso   1.00
C8108  C     0.98811   0.97553   0.72361   0.00000  Uiso   1.00
C8109  C     1.05927   1.15968   0.73551   0.00000  Uiso   1.00
C8110  C     0.92671   0.98349   0.78953   0.00000  Uiso   1.00
H8111  H     0.89255   1.14938   0.90384   0.00000  Uiso   1.00
H8112  H     0.95772   1.20683   0.73090   0.00000  Uiso   1.00
C8113  C     1.16600   0.97474   0.93185   0.00000  Uiso   1.00
N8114  N     1.22009   1.05639   0.88037   0.00000  Uiso   1.00
C8115  C     1.21981   1.05714   0.78554   0.00000  Uiso   1.00
N8116  N     0.89019   0.99645   0.95547   0.00000  Uiso   1.00
O8117  O     1.21747   1.04798   0.81252   0.00000  Uiso   1.00
C8118  C     1.18695   1.03161   0.97291   0.00000  Uiso   1.00
C8119  C     0.88992   1.16409   0.72451   0.00000  Uiso   1.00
H8120  H     0.92952   1.19191   1.10450   0.00000  Uiso   1.00
H8121  H     1.20076   1.12151   1.10066   0.00000  Uiso   1.00
C8122  C     0.94034   1.12357   1.18648   0.00000  Uiso   1.00
C8123  C     0.97738   1.15384   1.11432   0.00000  Uiso   1.00
C8124  C     0.97028   1.06054   0.99577   0.00000  Uiso   1.00
C8125  C     1.01200   0.97735   1.07880   0.00000  Uiso   1.00
C8126  C     1.10165   1.15353   1.12834   0.00000  Uiso   1.00
H8127  H     1.12283   0.99573   1.13460   0.00000  Uiso   1.00
C8128  C     0.89721   1.16815   1.12422   0.00000  Uiso   1.00
H8129  H     1.16234   1.12302   1.07551   0.00000  Uiso   1.00
O8130  O     1.07606   1.10346   1.00991   0.00000  Uiso   1.00
C8131  C     1.14327   1.04807   0.99785   0.00000  Uiso   1.00
H8132  H     1.17849   1.06449   1.13946   0.00000  Uiso   1.00
N8133  N     1.19075   1.20810   1.01871   0.00000  Uiso   1.00
H8134  H     0.90253   1.10095   1.14522   0.00000  Uiso   1.00
H8135  H     1.12107   1.20811   1.19575   0.00000  Uiso   1.00
H8136  H     1.01243   1.17991   1.12222   0.00000  Uiso   1.00
H8137  H     0.97456   1.02061   1.16595   0.00000  Uiso   1.00
C8138  C     0.90134   1.03155   1.09660   0.00000  Uiso   1.00
C8139  C     1.11089   1.08394   1.10587   0.00000  Uiso   1.00
C8140  C     1.11671   1.03582   1.11841   0.00000  Uiso   1.00
H8141  H     1.15467   1.20237   1.21283   0.00000  Uiso   1.00
C8142  C     0.90747   1.09669   1.01731   0.00000  Uiso   1.00
H8143  H     1.16912   1.00576   1.02148   0.00000  Uiso   1.00
C8144  C     1.09819   1.05520   1.11034   0.00000  Uiso   1.00
C8145  C     1.16615   0.99784   1.21049   0.00000  Uiso   1.00
H8146  H     1.16177   1.12794   1.04011   0.00000  Uiso   1.00
C8147  C     0.98996   1.07501   1.01072   0.00000  Uiso   1.00
C8148  C     1.07067   1.04789   1.10730   0.00000  Uiso   1.00
C8149  C     1.06306   1.01988   1.10796   0.00000  Uiso   1.00
C8150  C     1.09880   1.10133   1.08266   0.00000  Uiso   1.00
H8151  H     1.05639   1.06172   1.09649   0.00000  Uiso   1.00
H8152  H     1.14547   1.06756   1.07954   0.00000  Uiso   1.00
H8153  H     1.14852   1.06485   0.98463   0.00000  Uiso   1.00
H8154  H     0.99667   1.13668   1.14997   0.00000  Uiso   1.00
C8155  C     1.08353   1.12324   1.09248   0.00000  Uiso   1.00
N8156  N     1.01600   1.00244   1.19754   0.00000  Uiso   1.00
H8157  H     1.17259   1.15527   1.05902   0.00000  Uiso   1.00
H8158  H     1.15798   1.02350   1.08070   0.00000  Uiso   1.00
C8159  C     0.92883   1.02739   0.97473   0.00000  Uiso   1.00
C8160  C     0.90020   1.12357   1.02510   0.00000  Uiso   1.00
C8161  C     0.95281   1.07002   1.20140   0.00000  Uiso   1.00
C8162  C     0.94279   1.06684   1.00358   0.00000  Uiso   1.00
C8163  C     1.01383   1.14198   0.99277   0.00000  Uiso   1.00
H8164  H     1.06596   1.12632   1.16327   0.00000  Uiso   1.00
C8165  C     0.96304   1.11162   1.13880   0.00000  Uiso   1.00
H8166  H     1.00389   1.11827   1.11871   0.00000  Uiso   1.00
C8167  C     1.06068   1.12552   1.14128   0.00000  Uiso   1.00
H8168  H     0.97585   1.16623   1.06985   0.00000  Uiso   1.00
H8169  H     1.11001   1.15876   1.15024   0.00000  Uiso   1.00
H8170  H     0.98330   1.02580   1.13053   0.00000  Uiso   1.00
C8171  C     1.08138   1.00085   1.11947   0.00000  Uiso   1.00
H8172  H     0.90031   1.03888   1.07406   0.00000  Uiso   1.00
C8173  C     1.08417   1.22113   0.99960   0.00000  Uiso   1.00
C8174  C     1.20165   1.12064   1.05849   0.00000  Uiso   1.00
H8175  H     1.08858   1.17069   1.12715   0.00000  Uiso   1.00
O8176  O     0.89367   1.05442   0.99515   0.00000  Uiso   1.00
H8177  H     1.10291   1.09000   1.14902   0.00000  Uiso   1.00
C8178  C     1.03410   0.98505   1.09496   0.00000  Uiso   1.00
H8179  H     1.10188   1.20988   1.00651   0.00000  Uiso   1.00
C8180  C     0.99631   1.16231   1.00505   0.00000  Uiso   1.00
C8181  C     1.10826   1.10270   1.13092   0.00000  Uiso   1.00
C8182  C     1.14745   0.97682   1.20863   0.00000  Uiso   1.00
H8183  H     0.93337   1.14323   1.17884   0.00000  Uiso   1.00
C8184  C     1.16063   0.99902   1.00166   0.00000  Uiso   1.00
H8185  H     1.01916   1.06296   1.13997   0.00000  Uiso   1.00
H8186  H     1.14784   1.05053   1.01917   0.00000  Uiso   1.00
O8187  O     1.07503   0.97310   1.12167   0.00000  Uiso   1.00
C8188  C     0.93708   1.08588   1.21912   0.00000  Uiso   1.00
H8189  H     1.19022   1.07708   1.06633   0.00000  Uiso   1.00
H8190  H     0.97660   1.12963   1.07597   0.00000  Uiso   1.00
C8191  C     1.03762   1.13500   1.00621   0.00000  Uiso   1.00
C8192  C     1.16537   1.02785   1.10254   0.00000  Uiso   1.00
C8193  C     1.13785   1.21681   1.20913   0.00000  Uiso   1.00
C8194  C     1.15941   1.05347   1.14491   0.00000  Uiso   1.00
H8195  H     1.19167   1.08408   1.03130   0.00000  Uiso   1.00
C8196  C     1.08711   1.12507   1.12402   0.00000  Uiso   1.00
H8197  H     1.12793   1.11238   1.13655   0.00000  Uiso   1.00
C8198  C     0.98788   1.12980   1.13153   0.00000  Uiso   1.00
H8199  H     1.11929   1.15870   1.11466   0.00000  Uiso   1.00
H8200  H     1.05063   1.14318   1.13231   0.00000  Uiso   1.00
H8201  H     1.00735   1.15218   1.08344   0.00000  Uiso   1.00
C8202  C     1.00755   1.06626   1.15885   0.00000  Uiso   1.00
H8203  H     0.93229   0.98971   1.09491   0.00000  Uiso   1.00
C8204  C     0.98488   1.15023   1.08341   0.00000  Uiso   1.00
H8205  H     1.04934   1.10631   1.13879   0.00000  Uiso   1.00
C8206  C     1.14085   1.07403   1.10120   0.00000  Uiso   1.00
C8207  C     1.06215   1.13190   1.04834   0.00000  Uiso   1.00
O8208  O     1.04381   1.14630   1.03225   0.00000  Uiso   1.00
H8209  H     1.14752   1.06772   1.15764   0.00000  Uiso   1.00
C8210  C     1.14604   1.04666   1.11811   0.00000  Uiso   1.00
C8211  C     1.10843   1.00883   1.12409   0.00000  Uiso   1.00
N8212  N     1.00777   1.08724   1.02187   0.00000  Uiso   1.00
H8213  H     1.12027   1.04661   0.99699   0.00000  Uiso   1.00
C8214  C     1.05370   1.11294   0.99480   0.00000  Uiso   1.00
C8215  C     1.20929   1.04018   0.98706   0.00000  Uiso   1.00
C8216  C     0.96327   1.07920   1.17693   0.00000  Uiso   1.00
H8217  H     1.22260   1.08317   1.05134   0.00000  Uiso   1.00
H8218  H     1.15617   1.09058   1.10517   0.00000  Uiso   1.00
H8219  H     1.01191   1.05068   1.17398   0.00000  Uiso   1.00
O8220  O     1.19045   0.99859   1.19414   0.00000  Uiso   1.00
H8221  H     1.05459   1.15631   1.08578   0.00000  Uiso   1.00
H8222  H     1.02260   1.22236   0.97587   0.00000  Uiso   1.00
C8223  C     1.07876   1.11040   1.03726   0.00000  Uiso   1.00
C8224  C     0.97631   1.06484   1.15308   0.00000  Uiso   1.00
H8225  H     1.18495   1.04171   1.10052   0.00000  Uiso   1.00
C8226  C     1.06637   1.13947   1.07588   0.00000  Uiso   1.00
C8227  C     1.17345   1.13309   1.05828   0.00000  Uiso   1.00
C8228  C     0.97749   1.03910   0.97809   0.00000  Uiso   1.00
C8229  C     0.96419   1.08220   1.13022   0.00000  Uiso   1.00
H8230  H     0.97108   1.08085   1.10962   0.00000  Uiso   1.00
O8231  O     1.03644   1.01362   1.10111   0.00000  Uiso   1.00
H8232  H     0.94853   1.02671   1.14107   0.00000  Uiso   1.00
H8233  H     1.01301   1.08723   1.16707   0.00000  Uiso   1.00
H8234  H     1.21056   1.04581   1.01036   0.00000  Uiso   1.00
C8235  C     1.20497   1.22049   1.00441   0.00000  Uiso   1.00
H8236  H     1.16898   1.00731   1.11209   0.00000  Uiso   1.00
C8237  C     1.20018   1.08961   1.05081   0.00000  Uiso   1.00
H8238  H     1.21012   1.11694   0.99731   0.00000  Uiso   1.00
O8239  O     0.93546   1.09136   1.01749   0.00000  Uiso   1.00
C8240  C     0.98913   1.18034   1.12494   0.00000  Uiso   1.00
C8241  C     0.92380   1.17180   1.11353   0.00000  Uiso   1.00
H8242  H     0.98132   1.19805   1.11364   0.00000  Uiso   1.00
H8243  H     1.10589   1.07548   1.04621   0.00000  Uiso   1.00
C8244  C     0.92235   1.05001   0.99241   0.00000  Uiso   1.00
C8245  C     1.09642   1.09475   1.05460   0.00000  Uiso   1.00
N8246  N     0.97649   1.01217   1.05905   0.00000  Uiso   1.00
C8247  C     1.21674   0.97745   1.15981   0.00000  Uiso   1.00
H8248  H     0.94267   1.07524   1.13145   0.00000  Uiso   1.00
C8249  C     0.99269   0.99696   1.06737   0.00000  Uiso   1.00
N8250  N     0.98197   1.17975   1.01491   0.00000  Uiso   1.00
C8251  C     0.90924   1.12200   1.13699   0.00000  Uiso   1.00
H8252  H     0.95477   1.04895   1.20874   0.00000  Uiso   1.00
H8253  H     0.91718   1.13738   1.03132   0.00000  Uiso   1.00
C8254  C     0.96967   1.03184   1.14745   0.00000  Uiso   1.00
H8255  H     0.98340   1.18602   1.14680   0.00000  Uiso   1.00
C8256  C     0.94447   1.15270   1.11624   0.00000  Uiso   1.00
C8257  C     0.95716   1.10671   1.16907   0.00000  Uiso   1.00
H8258  H     0.92257   1.03659   1.10224   0.00000  Uiso   1.00
C8259  C     0.93658   1.12654   1.12766   0.00000  Uiso   1.00
H8260  H     1.20338   1.17791   1.10799   0.00000  Uiso   1.00
C8261  C     1.15750   1.02385   0.98307   0.00000  Uiso   1.00
C8262  C     1.19319   0.97684   1.17609   0.00000  Uiso   1.00
H8263  H     1.16146   1.03497   1.15685   0.00000  Uiso   1.00
H8264  H     1.16843   1.21150   1.16196   0.00000  Uiso   1.00
C8265  C     1.21567   1.12632   1.08528   0.00000  Uiso   1.00
H8266  H     1.06703   1.21071   1.00925   0.00000  Uiso   1.00
H8267  H     1.14269   0.98770   1.00898   0.00000  Uiso   1.00
C8268  C     1.01489   0.97886   1.19856   0.00000  Uiso   1.00
C8269  C     1.21959   1.13309   1.00878   0.00000  Uiso   1.00
C8270  C     0.89147   1.00062   1.09875   0.00000  Uiso   1.00
C8271  C     0.92937   1.11344   1.21038   0.00000  Uiso   1.00
H8272  H     0.91787   0.97543   1.06746   0.00000  Uiso   1.00
C8273  C     0.91324   0.98037   1.08886   0.00000  Uiso   1.00
C8274  C     1.21710   1.13675   1.03687   0.00000  Uiso   1.00
H8275  H     1.17508   0.98253   0.99379   0.00000  Uiso   1.00
H8276  H     1.13508   1.22159   1.15186   0.00000  Uiso   1.00
N8277  N     0.92521   1.22085   0.97580   0.00000  Uiso   1.00
H8278  H     1.20329   1.22248   1.19248   0.00000  Uiso   1.00
loop_
_geom_bond_atom_site_label_1
_geom_bond_atom_site_label_2
_geom_bond_distance
_geom_bond_site_symmetry_2
_ccdc_geom_bond_type
H1     C220    1.083   .     S
C2     H53     1.080   .     S
C2     H106    1.123   .     S
C2     H140    1.181   .     S
C2     C138    1.521   .     S
C3     C116    1.601   .     S
C3     C121    1.512   .     S
C3     C114    1.534   .     S
C3     C18     1.498   .     S
C4     C113    1.369   .     S
C4     O61     1.407   .     S
C4     C59     1.415   .     S
C5     C17     1.525   .     S
C5     H58     1.164   .     S
C5     H132    1.089   .     S
C5     H98     1.109   .     S
H6     C104    1.085   .     S
C7     C114    1.407   .     S
C7     C59     1.393   .     S
C7     H139    1.104   .     S
H8     C115    1.081   .     S
O9     C145    1.436   .     S
O9     C97     1.381   .     S
O10    C135    1.391   .     S
O10    C59     1.404   .     S
H11    C34     1.081   .     S
C12    C155    1.539   .     S
C12    C179    1.482   .     S
C12    C89     1.522   .     S
C12    C76     1.564   .     S
C13    H54     1.094   .     S
C13    H118    1.123   .     S
C13    H48     1.133   .     S
C13    C100    1.497   .     S
N14    C2255   1.162   1_545 S
C15    C100    1.454   .     S
C15    H172    1.093   .     S
C15    H146    1.127   .     S
C15    H265    1.105   .     S
N16    C164    1.193   .     S
C17    C57     1.496   .     S
C17    C144    1.512   .     S
C17    C81     1.529   .     S
C18    C36     1.408   .     S
C18    C47     1.409   .     S
O19    C50     1.419   .     S
O19    C5753   1.459   1_455 S
C20    H93     1.092   .     S
C20    C50     1.392   .     S
C20    C21     1.383   .     S
C21    C81     1.383   .     S
C21    C77     1.542   .     S
O22    C70     1.375   .     S
O22    C5731   1.411   1_455 S
H23    C124    1.128   .     S
H24    C121    1.097   .     S
C25    H49     1.054   .     S
C25    C71     1.374   .     S
C25    C89     1.425   .     S
C26    O27     1.410   .     S
C26    C35     1.371   .     S
C26    C32     1.424   .     S
O27    C129    1.348   .     S
H28    C144    1.066   .     S
H29    C113    1.078   .     S
C30    C86     1.543   .     S
C30    C116    1.503   .     S
C30    C154    1.573   .     S
C30    C47     1.500   .     S
H31    C121    1.032   .     S
C32    O125    1.414   .     S
C32    C38     1.360   .     S
H33    C154    1.071   .     S
C34    H43     1.102   .     S
C34    H162    1.065   .     S
C34    C41     1.572   .     S
C35    C136    1.424   .     S
C35    C42     1.382   .     S
C36    H99     1.080   .     S
C36    C120    1.428   .     S
H37    C116    1.119   .     S
C38    C163    1.408   .     S
C38    C92     1.449   .     S
H39    C115    1.068   .     S
O40    C44     1.401   .     S
O40    C71     1.397   .     S
C41    C147    1.503   .     S
C41    C109    1.567   .     S
C41    C121    1.465   .     S
C42    C163    1.419   .     S
C42    O844    1.373   .     S
C44    C75     1.382   .     S
C44    C145    1.373   .     S
H45    C167    1.079   .     S
C46    C75     1.402   .     S
C46    N5752   1.158   1_455 S
C47    C131    1.401   .     S
C50    C70     1.385   .     S
C51    C70     1.383   .     S
C51    H117    1.079   .     S
C51    C81     1.355   .     S
H52    C116    1.141   .     S
C55    C126    1.370   .     S
C55    O783    1.426   .     S
C55    C168    1.363   .     S
H56    C86     1.102   .     S
C57    H122    1.083   .     S
C57    H152    1.115   .     S
C57    H119    1.107   .     S
H60    C63     1.043   .     S
O61    C83     1.416   .     S
H62    C133    1.102   .     S
C63    C2933   1.429   .     S
C63    C171    1.355   .     S
C64    C110    1.392   .     S
C64    C708    1.498   .     S
C64    C201    1.400   .     S
H65    C147    1.112   .     S
O66    C80     1.407   .     S
O66    C101    1.380   .     S
C67    H103    1.096   .     S
C67    H153    1.131   .     S
C67    C138    1.516   .     S
C67    H107    1.155   .     S
H68    C2153   1.103   1_545 S
C69    H73     1.067   .     S
C69    C97     1.431   .     S
C69    C130    1.383   .     S
C71    C97     1.440   .     S
C72    C130    1.535   .     S
C72    C179    1.544   .     S
C72    C208    1.608   .     S
C72    C220    1.504   .     S
N74    C2923   1.172   .     S
C75    C168    1.388   .     S
C76    H128    1.103   .     S
C76    H111    1.094   .     S
C76    C100    1.524   .     S
C77    C115    1.522   .     S
C77    C134    1.498   .     S
C77    C144    1.543   .     S
O78    C120    1.373   .     S
O78    C148    1.364   .     S
C79    C94     1.383   .     S
C79    C138    1.512   .     S
C79    C134    1.381   .     S
C80    C131    1.407   .     S
C80    C120    1.422   .     S
H82    C86     1.101   .     S
C83    C143    1.378   .     S
C83    C135    1.417   .     S
H84    C104    1.121   .     S
H85    C156    1.113   .     S
C86    H105    1.105   .     S
H87    C131    1.148   .     S
H88    C124    1.133   .     S
C89    C130    1.407   .     S
N90    C136    1.176   .     S
C91    C104    1.561   .     S
C91    C171    1.482   .     S
C91    C156    1.507   .     S
C91    C124    1.485   .     S
C92    N102    1.200   .     S
C94    C108    1.401   .     S
C94    H127    1.108   .     S
H95    C154    1.092   .     S
H96    C144    1.082   .     S
C100   C5645   1.520   1_455 S
C101   C148    1.372   .     S
C101   C183    1.374   .     S
C104   H159    1.110   .     S
C108   O125    1.380   .     S
C108   C129    1.412   .     S
C109   C113    1.391   .     S
C109   C114    1.433   .     S
C110   H181    1.140   .     S
C110   C338    1.357   .     S
N112   C160    1.137   .     S
C115   C138    1.502   .     S
H123   C167    1.095   .     S
C124   H141    1.113   .     S
C126   C178    1.404   .     S
C126   C145    1.454   .     S
C129   C133    1.435   .     S
C133   C134    1.368   .     S
C135   C142    1.398   .     S
H137   C154    1.154   .     S
C142   C160    1.387   .     S
C142   C2253   1.444   1_545 S
C143   C164    1.439   .     S
C143   C2167   1.438   1_545 S
C147   H151    1.053   .     S
C147   H161    1.124   .     S
C148   C157    1.384   .     S
H149   C2153   1.064   1_545 S
N150   C158    1.166   .     S
C155   C5645   1.395   1_455 S
C155   C5655   1.369   1_455 S
C156   C2847   1.548   .     S
C156   H180    1.088   .     S
C157   C158    1.409   .     S
C157   C310    1.372   .     S
C163   O769    1.409   .     S
H165   C863    1.097   .     S
N166   C551    1.160   1_554 S
C167   C319    1.493   .     S
C167   C2276   1.571   1_545 S
C168   O174    1.413   .     S
H169   C177    1.101   .     S
H170   C2278   1.088   1_545 S
C171   C2864   1.406   .     S
H173   C307    1.108   .     S
O174   C723    1.416   .     S
H175   C307    1.131   .     S
H176   C2169   1.191   1_545 S
C177   C708    1.531   .     S
C177   C332    1.531   .     S
C177   H6196   1.099   1_455 S
C178   N717    1.170   .     S
C179   H185    1.121   .     S
C179   H340    1.091   .     S
H182   C2169   1.125   1_545 S
C183   C274    1.474   .     S
C183   C306    1.410   .     S
O184   C856    1.352   .     S
O184   C563    1.443   1_554 S
C186   H256    1.175   .     S
C186   C252    1.588   .     S
C186   H437    1.097   .     S
C186   H282    1.080   .     S
H187   C330    1.150   .     S
H188   C243    1.176   .     S
C189   H343    1.113   .     S
C189   C972    1.406   .     S
C189   C327    1.419   .     S
H190   C341    1.142   .     S
C191   C294    1.410   .     S
C191   C325    1.565   .     S
C191   C283    1.404   .     S
C192   C287    1.417   .     S
C192   C204    1.413   .     S
C192   C308    1.387   .     S
H193   C273    1.089   .     S
C194   O216    1.376   .     S
C194   C257    1.387   .     S
C194   C245    1.420   .     S
C195   C223    1.398   .     S
C195   O272    1.420   .     S
C195   C212    1.417   .     S
C196   C245    1.385   .     S
C196   C235    1.509   .     S
C196   C293    1.399   .     S
C197   C283    1.370   .     S
C197   O263    1.417   .     S
C197   C259    1.467   .     S
N198   C322    1.124   .     S
C199   C217    1.375   .     S
C199   C227    1.391   .     S
C199   O333    1.423   .     S
H200   C906    1.111   .     S
C201   C314    1.394   .     S
C201   C332    1.481   .     S
C202   C292    1.428   .     S
C202   C261    1.369   .     S
C202   O342    1.363   .     S
H203   C2423   1.096   1_545 S
C204   C264    1.436   .     S
C204   O216    1.378   .     S
N205   C5901   1.130   1_455 S
C206   C496    1.505   .     S
C206   H296    1.080   .     S
C206   H230    1.112   .     S
C206   H2378   1.097   1_545 S
C207   H278    1.130   .     S
C207   C325    1.531   .     S
C207   H2457   1.093   1_545 S
C207   C2458   1.500   1_545 S
C208   H324    1.113   .     S
C208   H214    1.093   .     S
C208   H251    1.104   .     S
C209   H222    1.077   .     S
C209   C252    1.539   .     S
C209   H266    1.103   .     S
C209   H499    1.031   .     S
H210   C318    1.113   .     S
C211   C295    1.376   .     S
C211   O3166   1.423   .     S
C211   C2441   1.438   1_545 S
C212   C289    1.395   .     S
C212   H225    1.138   .     S
C213   H328    1.079   .     S
C213   C319    1.557   .     S
C213   H299    1.151   .     S
C213   H238    1.098   .     S
N215   C287    1.145   .     S
C217   C233    1.387   .     S
C217   C226    1.475   .     S
H218   C295    1.124   .     S
H219   C250    1.091   .     S
C220   H280    1.140   .     S
C220   H346    1.092   .     S
C221   C232    1.458   .     S
C221   C264    1.392   .     S
C221   C301    1.409   .     S
C223   O311    1.406   .     S
C223   C262    1.395   .     S
C224   C327    1.376   .     S
C224   C947    1.381   .     S
C224   O279    1.377   .     S
C226   N297    1.144   .     S
C227   O263    1.407   .     S
C227   C236    1.373   .     S
C228   C512    1.371   .     S
C228   C252    1.560   .     S
C228   C329    1.368   .     S
H229   C321    1.131   .     S
H231   C253    1.074   .     S
C232   C308    1.348   .     S
C232   O335    1.411   .     S
C233   C275    1.450   .     S
C233   O279    1.400   .     S
H234   C269    1.041   .     S
C235   C318    1.547   .     S
C235   C329    1.533   .     S
C235   C255    1.506   .     S
C236   C322    1.434   .     S
C236   C275    1.401   .     S
H237   C262    1.077   .     S
O239   C308    1.386   .     S
O239   C284    1.372   .     S
H240   C307    1.145   .     S
C241   C290    1.408   .     S
C241   C321    1.378   .     S
C241   C276    1.566   .     S
H242   C305    1.111   .     S
C243   H249    1.115   .     S
C243   H300    1.101   .     S
C243   C276    1.505   .     S
H244   C245    1.138   .     S
H246   C2454   1.101   1_545 S
H247   C283    1.158   .     S
H248   C341    1.087   .     S
C250   C257    1.418   .     S
C250   C293    1.369   .     S
C252   C255    1.508   .     S
C253   H315    1.090   .     S
C253   C276    1.523   .     S
C253   C285    1.622   .     S
H254   C341    1.090   .     S
C255   H267    1.057   .     S
C255   H326    1.153   .     S
C257   O286    1.403   .     S
N258   C274    1.144   .     S
C259   C316    1.399   .     S
C259   O333    1.358   .     S
C260   H298    1.037   .     S
C260   H271    1.058   .     S
C260   H317    1.134   .     S
C260   C276    1.503   .     S
C261   H331    1.053   .     S
C261   C290    1.387   .     S
C262   C313    1.394   .     S
C264   O286    1.400   .     S
H268   C305    1.078   .     S
C269   H304    1.143   .     S
C269   C288    1.550   .     S
C269   H303    1.116   .     S
H270   C312    1.124   .     S
O272   C310    1.386   .     S
C273   C288    1.570   .     S
C273   H309    1.082   .     S
C273   H277    1.066   .     S
C275   O281    1.371   .     S
O281   C327    1.384   .     S
C284   C338    1.412   .     S
C284   C314    1.366   .     S
C285   C290    1.527   .     S
C285   C313    1.547   .     S
C285   C312    1.592   .     S
C288   C289    1.539   .     S
C288   C312    1.506   .     S
C289   C313    1.361   .     S
H291   C312    1.153   .     S
C292   O339    1.362   .     S
C292   C321    1.376   .     S
C293   C337    1.545   .     S
C294   C316    1.378   .     S
C294   C496    1.499   .     S
C295   C302    1.370   .     S
C301   N345    1.144   .     S
C302   C319    1.599   .     S
C302   C2370   1.396   1_545 S
C305   H320    1.114   .     S
C305   C2336   1.564   1_545 S
C306   C310    1.403   .     S
C306   O311    1.372   .     S
C307   C319    1.546   .     S
C314   H334    1.081   .     S
C316   H348    1.112   .     S
C318   C337    1.568   .     S
C318   H344    1.093   .     S
C323   C325    1.483   .     S
C323   C517    1.373   .     S
C323   C2455   1.368   1_545 S
C325   C364    1.565   .     S
C329   C998    1.383   .     S
C330   H5762   1.071   1_455 S
C330   C5763   1.560   1_455 S
C330   H6510   1.087   1_455 S
C332   C1022   1.507   .     S
C332   C5808   1.511   1_455 S
O335   C338    1.364   .     S
H336   C347    1.068   .     S
C337   C341    1.526   .     S
C337   C969    1.503   .     S
O339   C2385   1.398   1_545 S
O342   C2320   1.431   1_545 S
C347   C5808   1.426   1_455 S
C347   C5869   1.378   1_455 S
H349   C445    1.107   .     S
H350   C353    1.094   .     S
H351   C371    1.074   .     S
C352   C483    1.426   .     S
C352   O6074   1.435   1_455 S
C352   C6075   1.367   1_455 S
C353   C1184   1.401   .     S
C353   C355    1.388   .     S
C354   H450    1.089   .     S
C354   C484    1.380   .     S
C354   C438    1.367   .     S
C355   O486    1.364   .     S
C355   C1111   1.399   .     S
N356   C425    1.143   .     S
H357   C503    1.096   .     S
C358   H459    1.088   .     S
C358   C435    1.353   .     S
C358   C365    1.343   .     S
O359   C475    1.451   .     S
O359   C506    1.331   .     S
C360   C379    1.449   .     S
C360   H386    1.110   .     S
C360   C432    1.419   .     S
C361   C522    1.426   .     S
C361   O439    1.349   .     S
C361   C397    1.349   .     S
C362   H400    1.077   .     S
C362   H520    1.126   .     S
C362   H485    1.156   .     S
C362   C3345   1.472   .     S
C363   C445    1.543   .     S
C363   C410    1.499   .     S
C363   C411    1.540   .     S
C363   C379    1.490   .     S
C364   C496    1.458   .     S
C364   H516    1.097   .     S
C364   H2465   1.096   1_545 S
C365   C484    1.420   .     S
C365   O440    1.433   .     S
O366   C397    1.383   .     S
O366   C432    1.415   .     S
H367   C429    1.140   .     S
C368   H456    1.072   .     S
C368   C483    1.379   .     S
C368   C490    1.396   .     S
H369   C371    1.101   .     S
H370   C445    1.118   .     S
C371   C468    1.566   .     S
C371   H452    1.096   .     S
C372   C472    1.446   .     S
C372   C475    1.388   .     S
C372   C651    1.388   .     S
C373   O392    1.354   .     S
C373   C461    1.383   .     S
C373   C423    1.436   .     S
H374   C492    1.182   .     S
H375   C411    1.130   .     S
C376   C385    1.399   .     S
C376   H457    1.097   .     S
C376   C2513   1.388   1_545 S
H377   C467    1.113   .     S
H378   C462    1.098   .     S
C379   C384    1.379   .     S
H380   C429    1.141   .     S
C381   C447    1.370   .     S
C381   C462    1.399   .     S
C381   O392    1.392   .     S
C382   C462    1.365   .     S
C382   C473    1.521   .     S
C382   C449    1.400   .     S
N383   C393    1.162   .     S
C384   C444    1.492   .     S
C384   C387    1.346   .     S
C385   C468    1.504   .     S
C385   C406    1.339   .     S
C387   H510    1.126   .     S
C387   C407    1.378   .     S
C388   O1046   1.383   .     S
C388   C894    1.381   .     S
C388   C512    1.406   .     S
H389   C480    1.047   .     S
H390   C445    1.116   .     S
C391   C416    1.368   .     S
C391   O443    1.427   .     S
C391   C424    1.372   .     S
C393   C461    1.407   .     S
N394   C472    1.141   .     S
C395   N413    1.155   .     S
C395   C3152   1.410   .     S
H396   C414    1.095   .     S
C397   C455    1.437   .     S
O398   C469    1.411   .     S
O398   C487    1.391   .     S
H399   C410    1.060   .     S
H401   C517    1.110   .     S
C402   C458    1.388   .     S
C402   C487    1.477   .     S
C402   O436    1.441   .     S
H403   C460    1.094   .     S
C404   C424    1.385   .     S
C404   N433    1.171   .     S
H405   C418    1.115   .     S
C406   C415    1.545   .     S
C406   C5423   1.357   1_545 S
C407   C432    1.342   .     S
C407   O439    1.349   .     S
C408   C420    1.377   .     S
C408   O3216   1.428   .     S
C408   C434    1.432   .     S
H409   C494    1.105   .     S
C410   H488    1.117   .     S
C410   C444    1.487   .     S
C411   H427    1.128   .     S
C411   H454    1.095   .     S
H412   C448    1.141   .     S
C414   H491    1.072   .     S
C414   H478    1.169   .     S
C414   C471    1.491   .     S
C415   C480    1.530   .     S
C415   C3335   1.528   .     S
C415   C492    1.518   .     S
C416   C458    1.424   .     S
C416   O6074   1.443   1_455 S
C417   O436    1.439   .     S
C417   C469    1.389   .     S
C417   C421    1.460   .     S
C418   C449    1.430   .     S
C418   C447    1.428   .     S
C419   O486    1.416   .     S
C419   C1056   1.426   .     S
C419   C451    1.329   .     S
C420   C423    1.376   .     S
C420   C426    1.363   .     S
C421   C2609   1.375   1_545 S
C421   H6073   1.086   1_455 S
H422   C474    1.119   .     S
C423   O476    1.419   .     S
C424   C487    1.373   .     S
C425   C451    1.465   .     S
C426   N513    1.162   .     S
C428   C448    1.518   .     S
C428   C460    1.536   .     S
C428   C467    1.567   .     S
C428   C438    1.556   .     S
C429   H502    1.093   .     S
C429   C496    1.542   .     S
H430   C480    1.058   .     S
H431   C494    1.071   .     S
C434   C461    1.400   .     S
C434   O508    1.387   .     S
C435   C438    1.388   .     S
C435   C473    1.563   .     S
O440   H441    0.999   .     S
C442   H470    1.101   .     S
C442   H481    1.154   .     S
C442   C471    1.476   .     S
C442   H446    1.138   .     S
O443   C483    1.361   .     S
C444   C1161   1.520   .     S
C444   C1184   1.541   .     S
C447   O476    1.382   .     S
C448   H495    1.036   .     S
C448   H464    1.173   .     S
C449   C471    1.518   .     S
C451   C6013   1.414   1_455 S
C453   N466    1.156   .     S
C453   C455    1.398   .     S
C455   C618    1.434   .     S
C458   C6047   1.389   1_455 S
C460   H482    1.086   .     S
C460   H479    1.101   .     S
H463   C467    1.103   .     S
H465   C489    1.130   .     S
C467   C473    1.550   .     S
C468   C489    1.569   .     S
C468   C480    1.520   .     S
C469   C503    1.406   .     S
C471   C474    1.511   .     S
C473   C474    1.517   .     S
C474   H477    1.100   .     S
C475   C509    1.379   .     S
C484   O514    1.400   .     S
C489   H497    1.114   .     S
C489   H501    1.111   .     S
C490   C1052   1.519   .     S
C490   C518    1.409   .     S
C492   C3345   1.496   .     S
C492   H3232   1.081   .     S
H493   C512    1.088   .     S
C494   C3313   1.519   .     S
C494   H498    1.088   .     S
H500   C1259   1.157   .     S
C503   C2612   1.391   1_545 S
H504   C1118   1.139   .     S
H505   O514    1.008   .     S
C506   C515    1.371   .     S
C506   C8010   1.406   1_445 S
H507   C515    1.195   .     S
O508   C3304   1.373   .     S
C509   C687    1.376   .     S
C509   O7994   1.439   1_445 S
H511   C2546   1.140   1_545 S
C515   C2489   1.366   1_545 S
C517   C6049   1.416   1_455 S
C518   C5763   1.515   1_455 S
C518   C6075   1.408   1_455 S
H519   C2546   1.034   1_545 S
C521   H655    1.149   .     S
C521   C606    1.564   .     S
C521   H589    1.133   .     S
C521   H637    1.100   .     S
C522   C678    1.386   .     S
C522   C620    1.385   .     S
C523   C562    1.484   .     S
C523   C577    1.522   .     S
C523   C1207   1.483   .     S
C523   C605    1.510   .     S
H524   C690    1.127   .     S
H525   C642    1.127   .     S
C526   O660    1.391   .     S
C526   C571    1.392   .     S
C526   C627    1.371   .     S
N527   C586    1.130   .     S
H528   C622    1.094   .     S
H529   C577    1.089   .     S
C530   C598    1.376   .     S
C530   C568    1.404   .     S
C530   O671    1.450   .     S
H531   C562    1.063   .     S
H532   C647    1.069   .     S
O533   C651    1.370   .     S
O533   C638    1.442   .     S
C534   O579    1.408   .     S
C534   C680    1.350   .     S
C534   C584    1.410   .     S
C535   H581    1.064   .     S
C535   C650    1.527   .     S
C535   H648    1.146   .     S
C535   C652    1.542   .     S
O536   C682    1.393   .     S
O536   C548    1.401   .     S
H537   C647    1.113   .     S
C538   C606    1.522   .     S
C538   H556    1.075   .     S
C538   H2784   1.042   1_545 S
C538   H2807   1.130   1_545 S
C539   C650    1.488   .     S
C539   C547    1.430   .     S
C539   C554    1.394   .     S
H540   C605    1.111   .     S
C541   C550    1.562   .     S
C541   H610    1.104   .     S
C541   H592    1.070   .     S
C541   H663    1.091   .     S
C542   H670    1.072   .     S
C542   C570    1.549   .     S
C542   H2792   1.099   1_545 S
C542   H2806   1.081   1_545 S
C543   C664    1.414   .     S
C543   O591    1.381   .     S
C543   C546    1.433   .     S
C544   H545    1.113   .     S
C544   C638    1.345   .     S
C544   C616    1.382   .     S
C546   C563    1.408   .     S
C546   C551    1.377   .     S
C547   C627    1.380   .     S
C547   C652    1.531   .     S
C548   C613    1.404   .     S
C548   C617    1.424   .     S
O549   C649    1.430   .     S
O549   C620    1.386   .     S
C550   C3449   1.520   .     S
C550   C681    1.475   .     S
C550   C675    1.538   .     S
C551   N166    1.160   1_556 S
H552   C585    1.138   .     S
C553   H684    1.117   .     S
C553   H658    1.118   .     S
C553   H588    1.129   .     S
C553   C6126   1.525   1_455 S
C554   C571    1.417   .     S
C554   H631    1.082   .     S
H555   C615    1.126   .     S
N557   C678    1.138   .     S
C558   C619    1.558   .     S
C558   C613    1.396   .     S
C558   C665    1.385   .     S
H559   C572    1.117   .     S
H560   C611    1.138   .     S
C561   C644    1.396   .     S
C561   C568    1.388   .     S
C561   C621    1.403   .     S
C562   H1380   1.066   .     S
C562   H1240   1.118   .     S
C563   C629    1.397   .     S
C563   O184    1.443   1_556 S
C564   C677    1.375   .     S
C564   C661    1.426   .     S
C564   C6193   1.369   1_455 S
H565   C627    1.103   .     S
H566   C642    1.058   .     S
C567   C642    1.575   .     S
C567   C615    1.471   .     S
C567   C622    1.496   .     S
C567   C623    1.569   .     S
C568   O587    1.424   .     S
C569   C683    1.374   .     S
C569   C632    1.386   .     S
C569   H574    1.096   .     S
C570   C585    1.558   .     S
C570   C636    1.537   .     S
C570   C2635   1.502   1_545 S
C571   O593    1.381   .     S
C572   C650    1.542   .     S
C572   H673    1.117   .     S
C572   H573    1.092   .     S
H575   C622    1.079   .     S
H576   C605    1.135   .     S
C577   H612    1.117   .     S
C577   C619    1.528   .     S
H578   C615    1.078   .     S
O579   C664    1.448   .     S
C580   C609    1.421   .     S
C580   C636    1.393   .     S
C580   H646    1.083   .     S
O582   C677    1.400   .     S
O582   C6801   1.377   1_455 S
N583   C597    1.174   .     S
C584   O591    1.379   .     S
C584   C3525   1.387   .     S
C585   C625    1.534   .     S
C585   H596    1.090   .     S
C586   C598    1.405   .     S
O587   C607    1.328   .     S
N590   C2602   1.167   1_545 S
O593   C595    1.409   .     S
H594   C600    1.169   .     S
C595   C598    1.442   .     S
C595   C644    1.416   .     S
C597   C685    1.411   .     S
C599   H603    1.113   .     S
C599   C652    1.538   .     S
C599   H601    1.047   .     S
C599   C606    1.497   .     S
C600   H679    1.094   .     S
C600   C686    1.512   .     S
C600   H633    1.127   .     S
H602   C2635   1.132   1_545 S
H604   C622    1.105   .     S
C605   H676    1.023   .     S
C606   C640    1.530   .     S
C607   C6090   1.423   1_455 S
C607   C6185   1.382   1_455 S
C608   C664    1.398   .     S
C608   C667    1.446   .     S
C608   C629    1.443   .     S
C609   C638    1.399   .     S
C609   O659    1.421   .     S
C611   C630    1.375   .     S
C611   C656    1.374   .     S
C613   H628    1.073   .     S
C614   C665    1.372   .     S
C614   H1374   1.071   .     S
C614   C617    1.400   .     S
C615   C625    1.618   .     S
C616   C636    1.384   .     S
C616   C625    1.513   .     S
C617   O1310   1.384   .     S
C618   O635    1.405   .     S
C618   C620    1.372   .     S
C619   C1351   1.483   .     S
C619   C690    1.539   .     S
C621   N2780   1.171   1_545 S
C623   C645    1.415   .     S
C623   C656    1.417   .     S
H624   C645    1.107   .     S
C625   C656    1.534   .     S
H626   C675    1.104   .     S
C629   O1344   1.351   .     S
C630   C649    1.390   .     S
C630   O635    1.394   .     S
C632   C652    1.551   .     S
C632   C640    1.346   .     S
H634   C6117   1.097   1_455 S
C639   C687    1.390   .     S
C639   C651    1.393   .     S
C639   O659    1.396   .     S
C640   C668    1.374   .     S
O641   C666    1.383   .     S
O641   C1241   1.356   .     S
C642   H653    1.079   .     S
H643   C647    1.123   .     S
C644   O660    1.398   .     S
C645   C649    1.360   .     S
C647   C650    1.546   .     S
O654   C6182   1.401   1_455 S
O654   C6193   1.362   1_455 S
H657   C6179   1.105   1_455 S
C661   N662    1.150   .     S
C665   C686    1.530   .     S
C666   C1242   1.381   .     S
C666   C685    1.387   .     S
C667   N1363   1.147   .     S
C668   C2645   1.452   1_545 S
C668   H2791   1.087   1_545 S
H669   C680    1.118   .     S
O671   C6090   1.384   1_455 S
H672   C3396   1.065   .     S
H674   C2707   1.057   1_545 S
C675   C3517   1.618   .     S
C675   H3453   1.143   .     S
C677   C6170   1.399   1_455 S
C680   C681    1.352   .     S
C681   C3515   1.409   .     S
C682   C685    1.386   .     S
C682   C1369   1.429   .     S
C683   O688    1.399   .     S
C683   C2645   1.404   1_545 S
C686   C690    1.519   .     S
C686   C1329   1.507   .     S
C687   C8235   1.428   1_445 S
O688   C2661   1.363   1_545 S
H689   C3491   1.055   .     S
C690   H1331   1.071   .     S
C691   C713    1.554   .     S
C691   C702    1.548   .     S
C691   C742    1.565   .     S
C691   C833    1.541   .     S
H692   C772    1.121   .     S
C693   H738    1.119   .     S
C693   H799    1.098   .     S
C693   C825    1.614   .     S
C693   H766    1.073   .     S
H694   C808    1.130   .     S
H695   C742    1.160   .     S
O696   C699    1.374   .     S
O696   C774    1.407   .     S
C697   C818    1.525   .     S
C697   C743    1.508   .     S
C697   C1224   1.525   1_554 S
C697   C6325   1.560   1_455 S
H698   C810    1.117   .     S
C699   C836    1.396   .     S
C699   C824    1.421   .     S
C700   C847    1.511   .     S
C700   C770    1.351   .     S
C700   C763    1.383   .     S
H701   C732    1.131   .     S
C702   H734    1.123   .     S
C702   H784    1.078   .     S
C702   C779    1.516   .     S
C703   C774    1.368   .     S
C703   H1531   1.074   .     S
C703   C798    1.404   .     S
C704   C825    1.556   .     S
C704   H800    1.089   .     S
C704   H786    1.119   .     S
C704   H839    1.045   .     S
C705   H718    1.062   .     S
C705   H773    1.143   .     S
C705   H744    1.116   .     S
C705   C760    1.532   .     S
C706   C856    1.396   .     S
C706   C724    1.326   .     S
C706   H804    1.077   .     S
O707   C812    1.404   .     S
O707   C745    1.398   .     S
C708   C787    1.515   .     S
C708   C863    1.461   .     S
H709   C853    1.100   .     S
H710   C787    1.109   .     S
H711   C742    1.114   .     S
H712   C818    1.093   .     S
C713   C805    1.427   .     S
C713   C715    1.378   .     S
H714   C741    1.078   .     S
C715   C733    1.393   .     S
C715   C779    1.489   .     S
H716   C729    1.142   .     S
C719   C793    1.398   .     S
C719   C825    1.493   .     S
C719   C772    1.378   .     S
H720   C759    1.155   .     S
H721   C725    1.110   .     S
H722   C863    1.104   .     S
C723   C831    1.350   .     S
C723   C801    1.383   .     S
C724   C735    1.409   .     S
C724   C768    1.535   .     S
C725   C777    1.428   .     S
C725   C727    1.409   .     S
H726   C792    1.134   .     S
C727   C779    1.529   .     S
C727   C798    1.389   .     S
C728   C807    1.361   .     S
C728   H862    1.099   .     S
C728   C1212   1.393   1_554 S
C729   C821    1.353   .     S
C729   C793    1.391   .     S
C730   C3571   1.395   .     S
C730   C741    1.399   .     S
C730   C780    1.548   .     S
O731   C747    1.385   .     S
O731   C6317   1.409   1_455 S
C732   H816    1.069   .     S
C732   C848    1.524   .     S
C732   H817    1.054   .     S
C733   H806    1.122   .     S
C733   C747    1.384   .     S
C735   C837    1.490   .     S
C735   C1217   1.352   1_554 S
H736   C833    1.074   .     S
O737   C1433   1.432   .     S
O737   C6238   1.377   1_455 S
H739   C794    1.101   .     S
H740   C808    1.088   .     S
C741   C827    1.387   .     S
C742   H776    1.035   .     S
C743   H858    1.068   .     S
C743   H811    1.090   .     S
C743   H6260   1.139   1_455 S
C745   C752    1.351   .     S
C745   C822    1.413   .     S
H746   C1585   1.093   .     S
C747   C838    1.414   .     S
N748   C1562   1.168   .     S
C749   H758    1.101   .     S
C749   C757    1.428   .     S
C749   C796    1.358   .     S
O750   C840    1.399   .     S
O750   C1378   1.423   1_554 S
C751   N762    1.149   .     S
C751   C791    1.405   .     S
C752   O756    1.495   .     S
C752   C791    1.381   .     S
C753   C772    1.348   .     S
C753   C821    1.411   .     S
C753   O769    1.334   .     S
H754   C1303   1.068   1_554 S
H755   C759    1.098   .     S
O756   C757    1.367   .     S
C757   C812    1.427   .     S
C759   C854    1.546   .     S
C759   C779    1.553   .     S
C760   C853    1.512   .     S
C760   C1024   1.498   .     S
C760   C921    1.530   .     S
C761   H764    1.080   .     S
C761   C1587   1.577   .     S
C761   H1536   1.139   .     S
C761   C848    1.573   .     S
C763   H809    1.130   .     S
C763   C801    1.421   .     S
H765   C787    1.133   .     S
H767   C790    1.074   .     S
C768   C808    1.534   .     S
C768   C793    1.521   .     S
C768   C794    1.539   .     S
C770   C831    1.401   .     S
C770   C1366   1.550   1_554 S
H771   C790    1.090   .     S
C774   C777    1.468   .     S
H775   C833    1.087   .     S
C777   O832    1.376   .     S
H778   C863    1.106   .     S
C780   C1336   1.525   1_554 S
C780   C4172   1.547   1_554 S
C780   C4211   1.572   1_554 S
O781   C827    1.377   .     S
O781   C797    1.417   .     S
H782   C921    1.070   .     S
O783   C801    1.391   .     S
H785   C818    1.156   .     S
C787   H842    1.148   .     S
H788   C790    1.117   .     S
H789   C831    1.163   .     S
C790   C830    1.504   .     S
C791   C797    1.415   .     S
C792   C815    1.355   .     S
C792   C812    1.372   .     S
C794   H829    1.145   .     S
C794   C825    1.533   .     S
C795   C826    1.395   .     S
C795   C836    1.374   .     S
C795   C840    1.357   .     S
C796   C1025   1.536   .     S
C796   C815    1.388   .     S
C797   C835    1.374   .     S
C798   C854    1.499   .     S
H802   C813    1.062   .     S
H803   C818    1.105   .     S
C805   C838    1.392   .     S
C805   H6365   1.076   1_455 S
C807   C847    1.561   .     S
C807   C855    1.367   .     S
C808   C837    1.512   .     S
C810   C1587   1.573   .     S
C810   C860    1.557   .     S
C810   H834    1.063   .     S
C813   C837    1.512   .     S
C813   H841    1.076   .     S
C813   H864    1.083   .     S
H814   C833    1.136   .     S
C815   C899    1.570   .     S
C819   H850    1.153   .     S
C819   C855    1.417   .     S
C819   C1227   1.377   1_554 S
H820   C1377   1.093   1_554 S
C821   O844    1.393   .     S
C822   C852    1.402   .     S
C822   C835    1.373   .     S
O823   C835    1.445   .     S
O823   C843    1.367   .     S
C824   C1579   1.405   .     S
C824   C849    1.394   .     S
C826   N828    1.183   .     S
C827   C843    1.456   .     S
C830   C855    1.491   .     S
C830   C1213   1.570   1_554 S
C830   C1267   1.481   1_554 S
O832   C836    1.404   .     S
C837   C1377   1.576   1_554 S
C838   O6279   1.380   1_455 S
C840   C849    1.351   .     S
C843   C3577   1.420   .     S
H845   C859    1.082   .     S
H846   C1291   1.121   1_554 S
C847   C1213   1.488   1_554 S
C847   C1219   1.517   1_554 S
C848   C1577   1.537   .     S
C848   C1515   1.547   .     S
C849   O1320   1.422   1_554 S
H851   C859    1.082   .     S
C852   N3623   1.147   .     S
C853   C1025   1.508   .     S
C853   H857    1.102   .     S
C854   C1532   1.581   .     S
C854   C1585   1.515   .     S
C856   C1355   1.460   1_554 S
C859   C860    1.537   .     S
C859   H917    1.125   .     S
C860   C1781   1.548   .     S
C860   C994    1.513   .     S
H861   C975    1.088   .     S
H865   C907    1.109   .     S
C866   H1182   1.103   .     S
C866   C1591   1.550   .     S
C866   H1018   1.125   .     S
C866   H933    1.098   .     S
C867   H882    1.136   .     S
C867   H944    1.112   .     S
C867   C900    1.537   .     S
C867   H923    1.093   .     S
C868   C968    1.369   .     S
C868   C1024   1.374   .     S
C868   C1025   1.541   .     S
C869   C900    1.592   .     S
C869   H1722   1.102   .     S
C869   C1731   1.537   .     S
C869   H981    1.096   .     S
H870   C902    1.043   .     S
H871   C895    1.111   .     S
C872   H997    1.171   .     S
C872   C924    1.572   .     S
C872   H980    1.080   .     S
C872   C6373   1.567   1_455 S
C873   C934    1.365   .     S
C873   C920    1.402   .     S
C873   C938    1.479   .     S
C874   C947    1.441   .     S
C874   C938    1.556   .     S
C874   C972    1.360   .     S
H875   C918    1.138   .     S
O876   C896    1.412   .     S
O876   C978    1.421   .     S
C877   H919    1.092   .     S
C877   H963    1.144   .     S
C877   H976    1.100   .     S
C877   C949    1.561   .     S
C878   O946    1.384   .     S
C878   C979    1.384   .     S
C878   C915    1.390   .     S
C879   H904    1.104   .     S
C879   H961    1.128   .     S
C879   C949    1.534   .     S
C879   H940    1.185   .     S
C880   H908    1.132   .     S
C880   H989    1.128   .     S
C880   H909    1.083   .     S
C880   C899    1.536   .     S
H881   C895    1.082   .     S
H883   C1011   1.104   .     S
H884   C907    1.063   .     S
H885   C925    1.121   .     S
O886   C983    1.400   .     S
O886   C926    1.392   .     S
H887   C6419   1.067   1_455 S
H888   C916    1.104   .     S
H889   C902    1.101   .     S
H890   C1008   1.101   .     S
C891   C905    1.389   .     S
C891   C1037   1.420   .     S
C891   C974    1.439   .     S
O892   C941    1.359   .     S
O892   C1609   1.357   .     S
H893   C968    1.095   .     S
C894   O966    1.404   .     S
C894   C998    1.400   .     S
C895   C924    1.531   .     S
C895   H992    1.084   .     S
C896   C926    1.400   .     S
C896   C929    1.390   .     S
H897   C953    1.185   .     S
H898   C918    1.152   .     S
C899   C965    1.533   .     S
C899   C975    1.569   .     S
C900   C986    1.533   .     S
C900   C1011   1.527   .     S
C901   C930    1.406   .     S
C901   C978    1.375   .     S
C901   C1007   1.426   .     S
C902   H927    1.127   .     S
C902   C932    1.530   .     S
H903   C964    1.137   .     S
C905   C936    1.454   .     S
C905   O946    1.370   .     S
C906   C1052   1.576   .     S
C906   C1101   1.528   .     S
C906   H1001   1.120   .     S
C907   C938    1.514   .     S
C907   C949    1.567   .     S
H910   C971    1.072   .     S
H911   C916    1.108   .     S
H912   C939    1.078   .     S
H913   C998    1.169   .     S
H914   C994    1.086   .     S
C915   C920    1.391   .     S
C915   H948    1.142   .     S
C916   C1101   1.489   .     S
C916   H1177   1.103   .     S
C918   H922    1.125   .     S
C918   C932    1.506   .     S
C920   C949    1.545   .     S
C921   H973    1.109   .     S
C921   H1017   1.126   .     S
C924   C993    1.495   .     S
C924   C964    1.543   .     S
C925   C938    1.530   .     S
C925   H956    1.150   .     S
C925   C932    1.542   .     S
C926   C968    1.395   .     S
N928   C991    1.150   .     S
C929   C1024   1.384   .     S
C929   H1020   1.079   .     S
C930   N958    1.177   .     S
H931   C969    1.104   .     S
C932   C972    1.548   .     S
C934   H937    1.091   .     S
C934   C979    1.381   .     S
H935   C6513   1.132   1_455 S
C936   C967    1.389   .     S
C936   O982    1.444   .     S
C939   C1013   1.364   .     S
C939   C986    1.383   .     S
C941   C1013   1.436   .     S
C941   C1004   1.376   .     S
H942   C964    1.066   .     S
H943   C975    1.119   .     S
H945   C971    1.070   .     S
C947   H995    1.080   .     S
H950   C965    1.110   .     S
H951   C953    1.100   .     S
H952   C971    1.121   .     S
C953   C3776   1.517   .     S
C953   H3840   1.066   .     S
H954   C1745   1.104   .     S
C955   H957    1.083   .     S
C955   C1052   1.549   .     S
C955   C5763   1.532   1_455 S
C955   H6667   1.078   1_455 S
H959   C975    1.124   .     S
N960   C987    1.158   .     S
H962   C1008   1.113   .     S
C964   H990    1.098   .     S
C965   H999    1.143   .     S
C965   C1025   1.508   .     S
O966   C1183   1.365   .     S
C967   C987    1.397   .     S
C967   C1091   1.373   .     S
C969   H996    1.070   .     S
C969   H984    1.137   .     S
H970   C1011   1.151   .     S
C971   C6515   1.509   1_455 S
C974   N1021   1.192   .     S
C977   C1009   1.391   .     S
C977   C1005   1.378   .     S
C977   C983    1.334   .     S
C978   C983    1.407   .     S
C979   O982    1.403   .     S
H985   C1614   1.111   .     S
C986   C1015   1.399   .     S
H988   C1042   1.111   .     S
C991   C1174   1.411   .     S
C993   C6389   1.386   1_455 S
C993   C6513   1.401   1_455 S
C994   H1006   1.064   .     S
C994   H1019   1.135   .     S
H1000  C1022   1.132   .     S
H1002  C1619   1.118   .     S
H1003  C1008   1.112   .     S
C1004  H1769   1.129   .     S
C1004  C1015   1.421   .     S
C1005  C1007   1.382   .     S
C1005  O1594   1.434   .     S
C1007  O1012   1.378   .     S
C1008  C3776   1.554   .     S
C1009  N1771   1.139   .     S
H1010  C1022   1.127   .     S
C1011  H1644   1.115   .     S
O1012  C1712   1.378   .     S
C1013  O1703   1.370   .     S
N1014  C1748   1.160   .     S
C1015  C1731   1.510   .     S
H1016  C3732   1.122   .     S
C1022  C6381   1.571   1_455 S
H1023  C1118   1.035   .     S
C1026  C1255   1.523   .     S
C1026  C1139   1.531   .     S
C1026  C1138   1.579   .     S
C1026  C1136   1.535   .     S
C1027  C1302   1.531   .     S
C1027  C1060   1.451   .     S
C1027  C6581   1.402   1_455 S
C1028  C1039   1.411   .     S
C1028  C1101   1.571   .     S
C1028  C1121   1.380   .     S
H1029  C1067   1.159   .     S
C1030  F1158   1.343   .     S
C1030  C1163   1.419   .     S
C1030  C1105   1.372   .     S
C1031  C1138   1.569   .     S
C1031  C1115   1.586   .     S
C1031  C1054   1.442   .     S
C1031  C1100   1.564   .     S
O1032  C1146   1.393   .     S
O1032  C1051   1.421   .     S
H1033  C1155   1.043   .     S
C1034  N1153   1.159   .     S
C1034  C1112   1.383   .     S
H1035  C1043   1.126   .     S
C1036  C1085   1.395   .     S
C1036  O1045   1.383   .     S
C1036  C1174   1.416   .     S
C1037  C1091   1.423   .     S
C1037  O1068   1.410   .     S
H1038  C1160   1.060   .     S
C1039  C1052   1.529   .     S
C1039  C1141   1.390   .     S
C1040  C1083   1.421   .     S
C1040  C1143   1.513   .     S
C1040  C1074   1.348   .     S
O1041  C1233   1.358   .     S
O1041  C1109   1.356   .     S
C1042  C1591   1.528   .     S
C1042  H1782   1.099   .     S
C1042  H1059   1.114   .     S
C1043  C1062   1.460   .     S
C1043  H1119   1.046   .     S
C1043  H1071   1.076   .     S
H1044  C1128   1.101   .     S
O1045  C1142   1.466   .     S
O1046  C1120   1.422   .     S
H1047  C1100   1.098   .     S
C1048  C1137   1.382   .     S
C1048  C1102   1.390   .     S
C1048  O1087   1.390   .     S
C1049  C1105   1.399   .     S
C1049  C1109   1.409   .     S
C1049  O1298   1.425   .     S
C1050  C1139   1.389   .     S
C1050  C1789   1.414   .     S
C1050  H1168   1.127   .     S
C1051  C1110   1.437   .     S
C1051  C1141   1.378   .     S
C1053  H1186   1.126   .     S
C1053  C1169   1.614   .     S
C1053  H1799   1.089   .     S
C1053  H1167   1.109   .     S
C1054  C1078   1.385   .     S
C1054  C1876   1.385   .     S
H1055  C1141   1.129   .     S
C1056  C1176   1.402   .     S
C1056  O1082   1.401   .     S
C1057  C1151   1.532   .     S
C1057  C1124   1.546   .     S
C1057  C1074   1.518   .     S
C1057  C1160   1.506   .     S
C1058  N1116   1.137   .     S
C1058  C1070   1.418   .     S
C1060  H1069   1.108   .     S
C1060  C1157   1.393   .     S
C1061  C1113   1.395   .     S
C1061  C1080   1.400   .     S
C1061  C1165   1.346   .     S
C1062  C1067   1.591   .     S
C1062  C1090   1.540   .     S
C1062  C1155   1.555   .     S
C1063  H1076   1.118   .     S
C1063  H1162   1.078   .     S
C1063  H1095   1.111   .     S
C1063  C1148   1.548   .     S
H1064  C1160   1.094   .     S
C1065  O1127   1.356   .     S
C1065  C1142   1.434   .     S
C1065  C1122   1.417   .     S
H1066  C6535   1.111   1_455 S
C1067  H1107   1.104   .     S
C1067  H1134   1.113   .     S
O1068  C1137   1.375   .     S
C1070  C1109   1.369   .     S
C1070  C1163   1.384   .     S
H1072  C1161   1.096   .     S
C1073  C1104   1.396   .     S
C1073  H1152   1.139   .     S
C1073  C1111   1.372   .     S
C1074  C1166   1.363   .     S
H1075  C1140   1.204   .     S
N1077  C1092   1.149   .     S
C1078  C1916   1.386   .     S
C1078  C1169   1.513   .     S
H1079  C1083   1.153   .     S
C1080  N1081   1.156   .     S
O1082  C1111   1.429   .     S
C1083  C1129   1.353   .     S
N1084  C1096   1.118   .     S
C1085  C1112   1.410   .     S
C1085  O1127   1.389   .     S
O1086  C1113   1.392   .     S
O1086  C1157   1.401   .     S
O1087  C1091   1.360   .     S
H1088  C1100   1.069   .     S
H1089  C1161   1.109   .     S
C1090  C1140   1.395   .     S
C1090  C1123   1.391   .     S
C1092  C1176   1.420   .     S
H1093  C1094   1.083   .     S
C1094  C1148   1.535   .     S
C1094  H1171   1.103   .     S
C1094  H1126   1.146   .     S
C1096  C1125   1.329   .     S
H1097  C1151   1.085   .     S
H1098  C1166   1.083   .     S
H1099  C1121   1.099   .     S
C1100  C1169   1.485   .     S
C1101  C1118   1.532   .     S
C1102  C1181   1.386   .     S
C1102  H6656   1.121   1_455 S
H1103  C1118   1.093   .     S
C1104  C1184   1.354   .     S
C1104  C1148   1.483   .     S
C1105  C1379   1.333   .     S
H1106  C1128   1.121   .     S
C1108  O1164   1.427   .     S
C1108  C1125   1.371   .     S
C1108  C1185   1.387   .     S
C1110  C1121   1.360   .     S
C1110  O1132   1.399   .     S
C1112  C1120   1.393   .     S
C1113  C1179   1.405   .     S
H1114  C1160   1.093   .     S
C1115  C1139   1.389   .     S
C1115  C1869   1.409   .     S
H1117  C1136   1.097   .     S
C1120  C1183   1.416   .     S
C1122  H1150   1.142   .     S
C1122  C1123   1.401   .     S
C1123  C1143   1.476   .     S
C1124  H1131   1.118   .     S
C1124  H1144   1.075   .     S
C1124  H1135   1.071   .     S
C1125  C1257   1.437   .     S
C1128  C1169   1.546   .     S
C1128  H1154   1.143   .     S
C1129  C1159   1.415   .     S
C1129  O1164   1.372   .     S
H1130  C1136   1.163   .     S
O1132  C1165   1.378   .     S
H1133  C1155   1.113   .     S
C1136  H1145   1.145   .     S
C1137  C1172   1.391   .     S
C1138  H1156   1.080   .     S
C1138  H1173   1.070   .     S
C1140  C1142   1.339   .     S
C1143  C1155   1.517   .     S
C1143  C1151   1.530   .     S
C1146  C1165   1.422   .     S
C1146  C6586   1.426   1_455 S
O1147  C1185   1.421   .     S
O1147  C1159   1.406   .     S
C1148  C1161   1.526   .     S
F1149  C1163   1.351   .     S
C1151  H1170   1.125   .     S
C1157  C6551   1.406   1_455 S
C1159  C1166   1.396   .     S
C1172  H1923   1.148   .     S
C1172  C1180   1.402   .     S
C1174  C1183   1.391   .     S
H1175  C1231   1.092   .     S
C1176  C6666   1.436   1_455 S
H1178  C1381   1.084   .     S
C1179  O6524   1.390   1_455 S
C1179  C6586   1.379   1_455 S
C1180  C1917   1.495   .     S
C1180  C1181   1.401   .     S
C1181  C6654   1.527   1_455 S
C1185  C1220   1.366   .     S
H1187  C1381   1.090   .     S
C1188  C1281   1.394   .     S
C1188  C1264   1.407   .     S
C1188  O1261   1.395   .     S
H1189  C1325   1.082   .     S
C1190  H1354   1.132   .     S
C1190  H1247   1.109   .     S
C1190  C1205   1.530   .     S
C1190  H1300   1.064   .     S
C1191  C1335   1.409   .     S
C1191  C1292   1.392   .     S
C1191  H1252   1.137   .     S
H1192  C1255   1.093   .     S
O1193  C1242   1.404   .     S
O1193  C1330   1.343   .     S
C1194  O1198   1.435   .     S
C1194  C1297   1.422   .     S
C1194  C1216   1.380   .     S
H1195  C1215   1.058   .     S
C1196  C1304   1.363   .     S
C1196  N6723   1.129   1_455 S
N1197  C1201   1.145   .     S
O1198  C1352   1.365   .     S
N1199  C1379   1.146   .     S
C1200  O1208   1.392   .     S
C1200  C1338   1.399   .     S
C1200  C1260   1.408   .     S
C1201  C1360   1.398   .     S
H1202  C1329   1.081   .     S
C1203  C1326   1.373   .     S
C1203  C1265   1.364   .     S
C1203  H1350   1.100   .     S
H1204  C1339   1.043   .     S
C1205  C1305   1.483   .     S
C1205  C2107   1.588   .     S
C1205  C1253   1.507   .     S
C1206  C1339   1.371   .     S
C1206  C1232   1.388   .     S
C1206  C1353   1.518   .     S
C1207  C1351   1.410   .     S
C1207  C1214   1.382   .     S
O1208  C1301   1.338   .     S
H1209  C1255   1.115   .     S
H1210  C1254   1.121   .     S
C1211  O1266   1.362   .     S
C1211  C1325   1.397   .     S
C1211  C1292   1.387   .     S
C1212  C1227   1.487   .     S
C1212  O1246   1.407   .     S
C1212  C728    1.393   1_556 S
C1213  H1384   1.105   .     S
C1213  H1333   1.157   .     S
C1213  C847    1.488   1_556 S
C1213  C830    1.570   1_556 S
C1214  H1359   1.048   .     S
C1214  C1362   1.391   .     S
C1215  C1351   1.438   .     S
C1215  C1358   1.398   .     S
C1216  C1307   1.396   .     S
C1216  C1337   1.401   .     S
C1217  H1284   1.107   .     S
C1217  C1355   1.403   .     S
C1217  C735    1.352   1_556 S
C1218  C1220   1.416   .     S
C1218  N1230   1.103   .     S
C1219  H1308   1.085   .     S
C1219  H1361   1.098   .     S
C1219  C1366   1.523   .     S
C1219  C847    1.517   1_556 S
C1220  C1279   1.407   .     S
C1221  H1237   1.093   .     S
C1221  H1364   1.091   .     S
C1221  H1367   1.096   .     S
C1221  C1302   1.477   .     S
O1222  C1297   1.392   .     S
O1222  C1258   1.399   .     S
H1223  C6827   1.113   1_455 S
C1224  C1281   1.355   .     S
C1224  C697    1.525   1_556 S
C1224  C6679   1.386   1_455 S
H1225  C1341   1.078   .     S
N1226  C1286   1.134   .     S
C1227  O1309   1.377   .     S
C1227  C819    1.377   1_556 S
C1228  N1313   1.169   .     S
C1228  C1314   1.456   .     S
O1229  C1292   1.409   .     S
O1229  C1271   1.417   .     S
C1231  C1233   1.423   .     S
C1231  C1232   1.418   .     S
C1232  C1290   1.523   .     S
C1233  C1250   1.414   .     S
C1234  H2054   1.099   .     S
C1234  C1278   1.342   .     S
C1234  C1346   1.371   .     S
C1235  C1243   1.527   .     S
C1235  H1383   1.070   .     S
C1235  H1327   1.100   .     S
C1235  H1365   1.110   .     S
H1236  C1281   1.102   .     S
C1238  C1254   1.376   .     S
C1238  O1287   1.337   .     S
C1238  C1326   1.431   .     S
C1239  C1275   1.375   .     S
C1239  O1268   1.445   .     S
C1239  C1295   1.425   .     S
C1241  C1330   1.421   .     S
C1241  C1259   1.394   .     S
C1242  C1360   1.421   .     S
C1243  C1332   1.556   .     S
C1243  C1347   1.508   .     S
C1243  C1276   1.527   .     S
H1244  C1939   1.163   .     S
C1245  C1253   1.402   .     S
C1245  H1316   1.108   .     S
C1245  C1352   1.368   .     S
O1246  C1269   1.467   .     S
C1248  C1260   1.457   .     S
C1248  N1296   1.151   .     S
H1249  C1347   1.157   .     S
C1250  O1298   1.388   .     S
C1250  C1339   1.389   .     S
C1251  C1274   1.360   .     S
C1251  C1260   1.390   .     S
C1251  O1261   1.371   .     S
C1253  C1373   1.361   .     S
C1254  C1332   1.396   .     S
C1255  H1280   1.105   .     S
H1256  C1329   1.140   .     S
C1257  O1357   1.428   .     S
C1257  C1279   1.396   .     S
C1258  C1311   1.387   .     S
C1258  C1352   1.412   .     S
C1259  C4199   1.432   .     S
H1262  C1347   1.096   .     S
H1263  C1276   1.157   .     S
C1264  O1285   1.369   .     S
C1264  C6771   1.387   1_455 S
C1265  C1353   1.576   .     S
C1265  C1332   1.420   .     S
O1266  C1270   1.340   .     S
C1267  H1376   1.105   .     S
C1267  H1306   1.127   .     S
C1267  H1289   1.114   .     S
C1267  C830    1.481   1_556 S
O1268  C1326   1.376   .     S
C1269  C1307   1.375   .     S
C1269  C1314   1.386   .     S
C1270  C1275   1.419   .     S
C1270  C1271   1.373   .     S
C1271  C1293   1.386   .     S
H1272  C1348   1.094   .     S
H1273  C1329   1.188   .     S
C1274  C1304   1.420   .     S
C1274  O1285   1.400   .     S
C1275  C1345   1.393   .     S
C1276  C1353   1.560   .     S
C1276  H4162   1.098   .     S
C1277  C1325   1.399   .     S
C1277  C1335   1.379   .     S
C1277  C6730   1.537   1_455 S
C1278  C1960   1.489   .     S
C1278  C1336   1.402   .     S
C1279  O1328   1.401   .     S
H1282  C6807   1.088   1_455 S
H1283  C1322   1.091   .     S
C1286  C1293   1.339   .     S
O1287  C1295   1.420   .     S
C1288  H1321   1.115   .     S
C1288  H4189   1.089   .     S
C1288  H4128   1.130   .     S
C1288  C1290   1.491   .     S
C1290  C1341   1.570   .     S
C1290  C4097   1.544   .     S
C1291  H1371   1.107   .     S
C1291  C1366   1.523   .     S
C1291  H1319   1.137   .     S
C1291  H846    1.121   1_556 S
C1293  C1295   1.431   .     S
H1294  C4215   1.123   .     S
C1297  C1314   1.389   .     S
H1299  C1348   1.162   .     S
C1301  C1322   1.355   .     S
C1301  C1334   1.456   .     S
C1302  C1381   1.504   .     S
C1302  C6694   1.520   1_455 S
C1303  C1378   1.408   .     S
C1303  C1336   1.390   .     S
C1303  H754    1.068   1_556 S
C1304  C1338   1.391   .     S
C1305  C1984   1.510   .     S
C1305  H2015   1.031   .     S
C1305  H1324   1.195   .     S
C1307  O1309   1.401   .     S
O1310  C1369   1.506   .     S
C1311  H2043   1.090   .     S
C1311  C1373   1.402   .     S
C1312  H1318   1.097   .     S
C1312  C6801   1.353   1_455 S
C1312  C6832   1.395   1_455 S
C1315  H2098   1.075   .     S
C1315  C2105   1.404   .     S
C1315  C1334   1.402   .     S
H1317  C1377   1.053   .     S
O1320  C1346   1.432   .     S
O1320  C849    1.422   1_556 S
C1322  C1340   1.379   .     S
N1323  C1337   1.126   .     S
O1328  C1358   1.338   .     S
C1330  C4046   1.393   .     S
C1334  O1349   1.371   .     S
C1335  C6782   1.535   1_455 S
C1336  C780    1.525   1_556 S
C1338  O1349   1.393   .     S
C1340  C2105   1.367   .     S
C1340  C1984   1.563   .     S
C1341  H1368   1.106   .     S
C1341  C1353   1.550   .     S
H1342  C1381   1.124   .     S
H1343  C1348   1.065   .     S
O1344  C1355   1.382   .     S
C1345  N1356   1.137   .     S
C1346  C1378   1.391   .     S
C1347  H1372   1.117   .     S
C1348  C1366   1.526   .     S
C1355  C856    1.460   1_556 S
O1357  C1362   1.369   .     S
C1358  C1362   1.480   .     S
C1360  C1369   1.371   .     S
C1366  C770    1.550   1_556 S
H1370  C2024   1.113   .     S
C1373  C1984   1.491   .     S
H1375  C1377   1.103   .     S
C1377  C837    1.576   1_556 S
C1377  H820    1.093   1_556 S
C1378  O750    1.423   1_556 S
H1382  C6827   1.091   1_455 S
H1385  C2107   1.119   .     S
C1386  C1403   1.410   .     S
C1386  O1402   1.406   .     S
C1386  C1459   1.427   .     S
H1387  C1462   1.108   .     S
C1388  O1436   1.367   .     S
C1388  C1471   1.441   .     S
C1388  C1947   1.433   1_554 S
C1389  C1417   1.403   .     S
C1389  C1487   1.381   .     S
C1389  C1490   1.355   .     S
H1390  C1452   1.053   .     S
H1391  C1508   1.122   .     S
H1392  C1396   1.159   .     S
C1393  N1581   1.131   .     S
C1393  C1455   1.358   .     S
O1394  H1448   0.926   .     S
O1394  C1418   1.396   .     S
H1395  C1532   1.177   .     S
C1396  C1468   1.591   .     S
C1396  H1501   1.053   .     S
C1396  C1476   1.562   .     S
H1397  C1498   1.113   .     S
H1398  C1473   1.118   .     S
H1399  C1454   1.060   .     S
C1400  H1537   1.102   .     S
C1400  C1476   1.479   .     S
C1400  H1506   1.153   .     S
C1400  H1559   1.086   .     S
C1401  C1412   1.368   .     S
C1401  O1512   1.448   .     S
C1401  C1465   1.411   .     S
O1402  C1410   1.362   .     S
C1403  C1518   1.393   .     S
C1403  O1414   1.363   .     S
H1404  C1479   1.082   .     S
H1405  C1532   1.077   .     S
C1406  H1499   1.094   .     S
C1406  C1469   1.372   .     S
C1406  C1515   1.365   .     S
O1407  C1408   1.400   .     S
O1407  C1471   1.372   .     S
C1408  C1487   1.439   .     S
C1408  C1443   1.372   .     S
H1409  C1495   1.118   .     S
C1410  C1480   1.364   .     S
C1410  C1470   1.378   .     S
H1411  C1502   1.112   .     S
C1412  C1521   1.392   .     S
C1412  C1422   1.412   .     S
C1413  C1504   1.383   .     S
C1413  C1416   1.404   .     S
C1413  O1438   1.404   .     S
O1414  C1470   1.376   .     S
C1415  C1526   1.498   .     S
C1415  C1479   1.511   .     S
C1415  C1502   1.524   .     S
C1415  C1540   1.556   .     S
C1416  C1467   1.369   .     S
C1416  O1535   1.387   .     S
C1417  N1430   1.151   .     S
C1418  C1493   1.423   .     S
C1418  C1547   1.426   .     S
H1419  C1585   1.061   .     S
H1420  C1522   1.107   .     S
C1421  O1461   1.432   .     S
C1421  C1443   1.380   .     S
C1421  C1490   1.475   .     S
C1422  O1460   1.384   .     S
C1422  C1432   1.430   .     S
C1423  H1566   1.113   .     S
C1423  C4316   1.392   .     S
C1423  C1561   1.389   .     S
H1424  O1528   0.924   .     S
H1425  C1575   1.096   .     S
H1426  C1540   1.121   .     S
C1427  C1505   1.411   .     S
C1427  C1477   1.418   .     S
C1427  C1541   1.384   .     S
C1428  C1443   1.398   .     S
C1428  N1520   1.153   .     S
H1429  C1522   1.104   .     S
H1431  C1486   1.128   .     S
C1432  O1582   1.375   .     S
C1432  C1455   1.386   .     S
C1433  C1541   1.365   .     S
C1433  C1446   1.436   .     S
C1434  C1543   1.385   .     S
C1434  O1460   1.396   .     S
C1434  C1608   1.402   .     S
H1435  C1755   1.145   .     S
O1436  C1487   1.386   .     S
H1437  C1493   1.029   .     S
O1438  C1489   1.389   .     S
H1439  C1473   1.104   .     S
C1440  C1573   1.504   .     S
C1440  C1493   1.403   .     S
C1440  C1554   1.402   .     S
H1441  C1498   1.142   .     S
H1442  C1577   1.068   .     S
H1444  C1760   1.098   .     S
C1445  H1556   1.093   .     S
C1445  H1570   1.147   .     S
C1445  H1564   1.078   .     S
C1445  C1573   1.489   .     S
C1446  C1562   1.387   .     S
C1446  C1489   1.384   .     S
H1447  C1467   1.123   .     S
N1449  C1527   1.160   .     S
N1450  C2209   1.177   .     S
C1451  C4251   1.362   .     S
C1451  C4307   1.409   .     S
C1451  O1464   1.410   .     S
C1452  C1481   1.386   .     S
C1452  C1549   1.416   .     S
C1453  H1491   1.078   .     S
C1453  H1507   1.202   .     S
C1453  C1580   1.556   .     S
C1453  H1678   1.089   .     S
C1454  C1554   1.380   .     S
C1454  C1547   1.357   .     S
C1455  C1465   1.392   .     S
H1456  C1498   1.084   .     S
C1457  O1461   1.417   .     S
C1457  C1469   1.432   .     S
C1457  C1508   1.391   .     S
H1458  C1478   1.112   .     S
C1459  C2089   1.447   1_554 S
C1459  C2111   1.411   1_554 S
C1462  C1488   1.535   .     S
C1462  C1494   1.559   .     S
C1462  H1500   1.093   .     S
H1463  C1509   1.133   .     S
O1464  C2214   1.386   .     S
C1465  O1503   1.417   .     S
C1466  C1478   1.516   .     S
C1466  C1554   1.510   .     S
C1466  C6987   1.540   1_455 S
C1466  C7020   1.492   1_455 S
C1467  C1475   1.348   .     S
C1468  C1567   1.525   .     S
C1468  C1583   1.532   .     S
C1468  C1950   1.589   1_554 S
C1469  O1529   1.325   .     S
C1470  C1486   1.399   .     S
C1471  C1548   1.376   .     S
H1472  C1480   1.026   .     S
C1473  H1524   1.036   .     S
C1473  C1516   1.596   .     S
H1474  C1509   1.073   .     S
C1475  C1488   1.517   .     S
C1475  C1526   1.411   .     S
C1476  C1481   1.507   .     S
C1476  C1495   1.511   .     S
C1477  O1535   1.402   .     S
C1477  C1489   1.422   .     S
C1478  H1523   1.129   .     S
C1478  C1516   1.586   .     S
C1479  H1534   1.149   .     S
C1479  H1519   1.112   .     S
C1480  C1484   1.417   .     S
C1481  C1567   1.395   .     S
C1482  H1483   1.109   .     S
C1482  H1569   1.097   .     S
C1482  C1494   1.508   .     S
C1482  H1538   1.136   .     S
C1484  C1485   1.392   .     S
C1484  C1494   1.499   .     S
C1485  C1486   1.388   .     S
C1485  C1488   1.520   .     S
C1488  C1502   1.567   .     S
C1490  O1529   1.399   .     S
H1492  C1502   1.113   .     S
C1494  C1498   1.568   .     S
C1495  H1496   1.060   .     S
C1495  H1552   1.077   .     S
H1497  C1543   1.118   .     S
O1503  C1550   1.371   .     S
C1504  C1526   1.388   .     S
C1504  H1517   1.175   .     S
C1505  N1584   1.183   .     S
C1508  C1558   1.417   .     S
C1509  C2284   1.512   .     S
C1509  H2279   1.125   .     S
O1510  C2241   1.413   .     S
O1510  C1549   1.441   .     S
N1511  C6981   1.126   1_455 S
O1512  C1561   1.462   .     S
N1513  C1521   1.135   .     S
C1514  C1516   1.554   .     S
C1514  C6980   1.348   1_455 S
C1514  C7020   1.387   1_455 S
C1515  C1558   1.376   .     S
C1516  C1522   1.580   .     S
C1518  C1571   1.394   .     S
C1518  C1527   1.381   .     S
C1522  H1546   1.069   .     S
N1525  C2266   1.141   .     S
O1528  C1547   1.451   .     S
H1530  C4413   1.050   .     S
C1532  H1555   1.081   .     S
C1533  H1588   1.095   .     S
C1533  C1580   1.505   .     S
C1533  H1553   1.061   .     S
C1533  H1545   1.097   .     S
C1539  H1565   1.095   .     S
C1539  H1773   1.118   .     S
C1539  H1778   1.111   .     S
C1539  C1764   1.531   .     S
C1540  H1544   1.139   .     S
C1540  H1572   1.143   .     S
C1541  O6895   1.416   1_455 S
H1542  C1585   1.098   .     S
C1543  C1598   1.343   .     S
C1548  H1568   1.091   .     S
C1548  C1951   1.374   1_554 S
C1549  C2282   1.372   .     S
C1550  C4355   1.374   .     S
C1550  C1561   1.414   .     S
N1551  C2163   1.158   .     S
C1557  C1755   1.362   .     S
C1557  C1587   1.507   .     S
C1557  C1781   1.410   .     S
C1558  C1587   1.509   .     S
H1560  C1575   1.083   .     S
H1563  C1583   1.093   .     S
C1567  C2141   1.371   .     S
C1571  C2089   1.391   1_554 S
C1571  O2093   1.422   1_554 S
C1573  C6899   1.463   1_455 S
C1573  C6987   1.553   1_455 S
H1574  C1577   1.073   .     S
C1575  C1764   1.527   .     S
C1575  C1670   1.588   .     S
C1576  C4273   1.393   .     S
C1576  C1737   1.392   .     S
C1576  H4567   1.141   .     S
C1577  H3702   1.102   .     S
H1578  C4172   1.091   1_554 S
C1579  N2113   1.145   1_554 S
C1580  C2446   1.509   .     S
C1580  C1595   1.534   .     S
O1582  C1608   1.380   .     S
C1583  H2142   1.104   .     S
C1583  C2284   1.498   .     S
H1586  C1634   1.090   .     S
C1589  C1713   1.386   .     S
C1589  H1604   1.110   .     S
C1589  C1702   1.387   .     S
O1590  C1699   1.405   .     S
O1590  C1713   1.399   .     S
C1591  C1621   1.593   .     S
C1591  C1913   1.541   .     S
C1592  C1739   1.397   .     S
C1592  C1663   1.399   .     S
C1592  C1668   1.365   .     S
C1593  C1712   1.382   .     S
C1593  O1594   1.371   .     S
C1593  C1611   1.407   .     S
C1595  C1600   1.382   .     S
C1595  C1684   1.381   .     S
C1596  C1656   1.399   .     S
C1596  O1758   1.378   .     S
C1596  C1728   1.350   .     S
H1597  C1638   1.104   .     S
C1598  C1767   1.487   .     S
C1598  C1629   1.383   .     S
H1599  C1611   1.096   .     S
C1600  H1640   1.135   .     S
C1600  C1661   1.390   .     S
C1601  C1602   1.473   .     S
C1601  C1633   1.425   .     S
C1601  O1616   1.346   .     S
C1602  O1658   1.367   .     S
C1602  C1721   1.387   .     S
H1603  C1721   1.109   .     S
O1605  C1647   1.417   .     S
O1605  C1656   1.416   .     S
C1606  C1753   1.381   .     S
C1606  C1628   1.406   .     S
C1606  C7073   1.388   1_455 S
C1607  O1677   1.402   .     S
C1607  C1664   1.435   .     S
C1607  C1692   1.410   .     S
C1608  C1707   1.388   .     S
C1609  C1753   1.435   .     S
C1609  C7115   1.375   1_455 S
C1610  C4600   1.385   .     S
C1610  C4595   1.387   .     S
C1610  C1744   1.357   .     S
C1611  C1645   1.381   .     S
H1612  C1707   1.115   .     S
C1613  N1665   1.167   .     S
C1613  C1679   1.407   .     S
C1614  C1685   1.552   .     S
C1614  H1772   1.055   .     S
C1614  C1731   1.562   .     S
C1615  H1698   1.117   .     S
C1615  H1732   1.120   .     S
C1615  C1676   1.497   .     S
C1615  H1704   1.106   .     S
O1616  C1693   1.404   .     S
H1617  C1760   1.087   .     S
C1618  C1727   1.421   .     S
C1618  C1675   1.376   .     S
C1618  H1630   1.103   .     S
C1619  C1781   1.403   .     S
C1619  C1632   1.356   .     S
C1620  C1680   1.361   .     S
C1620  C1688   1.389   .     S
C1620  C1720   1.416   .     S
C1621  C1749   1.404   .     S
C1621  C1745   1.377   .     S
C1622  H1695   1.039   .     S
C1622  H1627   1.212   .     S
C1622  C1676   1.490   .     S
C1622  H1708   1.129   .     S
C1623  C1633   1.376   .     S
C1623  C1672   1.390   .     S
C1623  C1670   1.517   .     S
H1624  C1729   1.141   .     S
C1625  C1745   1.394   .     S
C1625  C1647   1.465   .     S
C1625  O1758   1.375   .     S
C1626  H1763   1.087   .     S
C1626  H1657   1.114   .     S
C1626  C1655   1.575   .     S
C1626  C1724   1.521   .     S
C1628  N1723   1.130   .     S
C1629  C1707   1.404   .     S
C1629  C1676   1.505   .     S
C1631  C1717   1.365   .     S
C1631  O7041   1.450   1_455 S
C1631  C7167   1.385   1_455 S
C1632  O1662   1.373   .     S
C1632  C1734   1.377   .     S
C1633  H1718   1.136   .     S
C1634  C1670   1.519   .     S
C1634  C7195   1.526   1_455 S
C1634  H7206   1.120   1_455 S
C1635  O1652   1.358   .     S
C1635  C1746   1.436   .     S
C1635  C1661   1.413   .     S
C1636  C1666   1.379   .     S
C1636  C1699   1.417   .     S
C1636  O1681   1.413   .     S
C1637  C1717   1.397   .     S
C1637  C1693   1.386   .     S
C1637  O1658   1.404   .     S
C1638  H1762   1.100   .     S
C1638  C1676   1.500   .     S
C1638  C1767   1.479   .     S
O1639  C1714   1.383   .     S
O1639  C1648   1.362   .     S
C1641  N1667   1.199   .     S
C1641  C1741   1.420   .     S
H1642  C1649   1.103   .     S
N1643  C1691   1.146   .     S
C1645  C1742   1.359   .     S
C1645  C1670   1.524   .     S
O1646  C1907   1.434   .     S
O1646  C7348   1.370   1_455 S
C1647  C1700   1.390   .     S
C1648  C4517   1.411   .     S
C1648  C1777   1.409   .     S
C1649  C1709   1.422   .     S
C1649  C1651   1.414   .     S
H1650  C1735   1.101   .     S
C1651  O1681   1.350   .     S
C1651  C1713   1.411   .     S
O1652  C1660   1.363   .     S
O1653  C1734   1.374   .     S
O1653  C1716   1.375   .     S
C1654  C1783   1.354   .     S
C1654  C1655   1.546   .     S
C1654  C1750   1.348   .     S
C1655  C1735   1.486   .     S
C1655  C1709   1.534   .     S
C1656  C1679   1.366   .     S
N1659  C1688   1.126   .     S
C1660  C1680   1.379   .     S
C1660  C1697   1.375   .     S
C1661  O1673   1.380   .     S
O1662  C1747   1.387   .     S
C1663  C1744   1.442   .     S
C1663  O1689   1.404   .     S
C1664  O1696   1.360   .     S
C1664  C1705   1.397   .     S
C1666  C1747   1.412   .     S
C1666  C1682   1.410   .     S
C1668  O1719   1.375   .     S
C1668  C4600   1.425   .     S
C1669  C1705   1.353   .     S
C1669  C1715   1.370   .     S
C1669  C1685   1.604   .     S
H1671  C1750   1.112   .     S
C1672  C1764   1.539   .     S
C1672  C1721   1.368   .     S
O1673  C1680   1.438   .     S
C1674  C1714   1.412   .     S
C1674  C1728   1.398   .     S
C1674  O1736   1.393   .     S
C1675  C1765   1.519   .     S
C1675  C1810   1.399   .     S
O1677  C1720   1.409   .     S
C1679  C1714   1.363   .     S
C1682  N1706   1.124   .     S
C1683  C1691   1.381   .     S
C1683  C1716   1.372   .     S
C1683  C1699   1.363   .     S
C1684  C1746   1.369   .     S
C1684  C2408   1.502   .     S
C1685  C1757   1.500   .     S
C1685  C1752   1.547   .     S
N1686  C1739   1.148   .     S
O1687  C1768   1.383   .     S
O1687  C1740   1.443   .     S
O1689  C1726   1.392   .     S
C1690  N1711   1.177   .     S
C1690  C1697   1.406   .     S
C1692  C1715   1.394   .     S
C1692  H1694   1.065   .     S
C1693  C7183   1.411   1_455 S
O1696  C1701   1.451   .     S
C1697  C1701   1.416   .     S
C1700  C1749   1.358   .     S
C1700  H1733   1.097   .     S
C1701  C1720   1.416   .     S
C1702  C1724   1.502   .     S
C1702  C1709   1.367   .     S
O1703  C1753   1.446   .     S
C1705  H1754   1.111   .     S
C1710  C1712   1.438   .     S
C1710  C1742   1.373   .     S
C1710  H7193   1.086   1_455 S
C1715  C1731   1.589   .     S
C1716  C1747   1.412   .     S
C1717  C1751   1.393   .     S
O1719  C4524   1.384   .     S
C1724  C1729   1.523   .     S
C1724  C2462   1.535   .     S
H1725  C1735   1.101   .     S
C1726  C1727   1.434   .     S
C1726  C1815   1.380   .     S
C1727  O1743   1.374   .     S
C1728  C1748   1.417   .     S
C1729  H2381   1.091   .     S
C1729  H1776   1.112   .     S
N1730  C1751   1.127   .     S
C1734  C1755   1.390   .     S
C1735  C1924   1.567   .     S
O1736  C1777   1.424   .     S
C1737  C1767   1.575   .     S
C1737  C2178   1.369   .     S
H1738  C1752   1.108   .     S
C1740  C1750   1.388   .     S
C1740  C1875   1.392   .     S
C1741  C1907   1.400   .     S
C1741  C1768   1.410   .     S
C1742  C7195   1.537   1_455 S
O1743  C1744   1.413   .     S
C1746  H2447   1.159   .     S
C1749  C1765   1.540   .     S
C1752  H1805   1.074   .     S
C1752  H1855   1.068   .     S
H1756  C4413   1.089   .     S
C1757  H1918   1.119   .     S
C1757  H1759   1.073   .     S
C1757  H1874   1.068   .     S
C1760  H1775   1.093   .     S
C1760  C1764   1.535   .     S
H1761  C7087   1.066   1_455 S
C1765  C1803   1.519   .     S
C1765  C1913   1.513   .     S
H1766  C4517   1.098   .     S
C1767  C2413   1.525   .     S
C1768  C1843   1.453   .     S
H1770  C2413   1.107   .     S
H1774  C2330   1.105   .     S
C1777  C4436   1.382   .     S
H1779  C1898   1.150   .     S
H1780  C2462   1.158   .     S
C1783  C1924   1.538   .     S
C1783  C1801   1.459   .     S
C1784  C2561   1.405   .     S
C1784  C1798   1.402   .     S
C1784  O1897   1.450   .     S
C1785  C1899   1.524   .     S
C1785  C1793   1.567   .     S
C1785  C1792   1.541   .     S
C1785  C1791   1.516   .     S
O1786  C1861   1.388   .     S
O1786  C2618   1.414   .     S
C1787  C1797   1.536   .     S
C1787  C2083   1.585   .     S
C1787  C1791   1.534   .     S
C1787  C1863   1.491   .     S
N1788  C1859   1.147   .     S
C1789  O1883   1.425   .     S
C1789  C1828   1.419   .     S
C1790  C1880   1.376   .     S
C1790  O1901   1.338   .     S
C1790  C1902   1.451   .     S
C1791  H1910   1.133   .     S
C1791  H1903   1.085   .     S
C1792  H1817   1.125   .     S
C1792  H1847   1.166   .     S
C1792  H1846   1.115   .     S
C1793  C1834   1.357   .     S
C1793  C1863   1.430   .     S
H1794  C1899   1.149   .     S
H1795  C1808   1.065   .     S
N1796  C1838   1.171   .     S
C1797  C2035   1.547   .     S
C1797  H2069   1.112   .     S
C1797  H1857   1.044   .     S
C1798  C1842   1.422   .     S
C1798  C1829   1.390   .     S
H1800  C1894   1.094   .     S
C1801  H1872   1.105   .     S
C1801  C1875   1.409   .     S
H1802  C1881   1.087   .     S
C1803  H1821   1.139   .     S
C1803  C1860   1.480   .     S
C1803  H1893   1.108   .     S
H1804  C1894   1.141   .     S
O1806  C1871   1.458   .     S
O1806  C7262   1.398   1_455 S
C1807  H1888   1.052   .     S
C1807  H1841   1.140   .     S
C1807  H1862   1.118   .     S
C1807  C1860   1.517   .     S
C1808  C1835   1.501   .     S
C1808  C1811   1.529   .     S
C1808  H1887   1.131   .     S
H1809  C1815   1.107   .     S
C1810  C1860   1.553   .     S
C1810  C1815   1.393   .     S
C1811  C1884   1.510   .     S
C1811  C1812   1.518   .     S
C1811  C1891   1.519   .     S
C1812  H1864   1.097   .     S
C1812  H1909   1.090   .     S
C1812  H1854   1.110   .     S
C1813  O1901   1.398   .     S
C1813  C1892   1.403   .     S
C1813  C1896   1.411   .     S
C1814  C1873   1.384   .     S
C1814  C1838   1.395   .     S
C1814  C1896   1.404   .     S
C1816  C1881   1.444   .     S
C1816  C1822   1.391   .     S
C1816  O1866   1.339   .     S
C1818  C2016   1.529   .     S
C1818  C2029   1.375   .     S
C1818  C1881   1.416   .     S
C1819  O1839   1.389   .     S
C1819  C1916   1.424   .     S
C1819  C1824   1.415   .     S
O1820  C1875   1.414   .     S
O1820  C1843   1.454   .     S
C1822  O1853   1.365   .     S
C1822  C1845   1.417   .     S
H1823  C1880   1.109   .     S
C1824  O1825   1.349   .     S
C1824  C1876   1.402   .     S
O1825  C1904   1.445   .     S
C1826  C1917   1.483   .     S
C1826  H1868   1.142   .     S
C1826  H1915   1.084   .     S
C1826  H1837   1.159   .     S
H1827  C1905   1.097   .     S
C1828  O1844   1.392   .     S
C1828  C1869   1.416   .     S
C1829  C1832   1.389   .     S
C1829  O1866   1.408   .     S
C1830  C1843   1.407   .     S
C1830  C1871   1.424   .     S
C1830  C1859   1.420   .     S
C1831  C1892   1.419   .     S
C1831  O1844   1.373   .     S
C1831  C1873   1.375   .     S
C1832  C2622   1.370   .     S
C1832  O1853   1.371   .     S
H1833  C1884   1.099   .     S
C1834  C1861   1.425   .     S
C1834  H1870   1.129   .     S
C1835  C4700   1.541   .     S
C1835  C1895   1.569   .     S
C1835  C2103   1.508   .     S
O1836  C1902   1.414   .     S
O1836  C1896   1.362   .     S
O1839  C7288   1.359   1_455 S
H1840  C1913   1.100   .     S
C1842  N1877   1.159   .     S
C1845  H1948   1.109   .     S
C1845  C2029   1.378   .     S
H1848  C1899   1.076   .     S
H1849  C1916   1.079   .     S
H1850  C1905   1.067   .     S
C1851  N1885   1.150   .     S
C1851  C1892   1.408   .     S
C1852  N1879   1.169   .     S
C1852  C2494   1.404   .     S
H1856  C1899   1.083   .     S
H1858  C1898   1.097   .     S
C1860  C1905   1.541   .     S
C1861  C2608   1.450   .     S
C1863  C1908   1.387   .     S
H1865  C1905   1.102   .     S
H1867  C1878   1.075   .     S
C1869  H1890   1.103   .     S
C1871  C1907   1.422   .     S
C1873  O1883   1.405   .     S
C1876  H1911   1.084   .     S
C1878  C1895   1.373   .     S
C1878  C1902   1.356   .     S
C1880  C1891   1.342   .     S
H1882  C1884   1.130   .     S
C1884  H1886   1.098   .     S
H1889  C1894   1.120   .     S
C1891  C1895   1.394   .     S
C1894  C1924   1.567   .     S
O1897  C2610   1.384   .     S
C1898  H1922   1.118   .     S
C1898  C1924   1.562   .     S
H1900  C7235   1.150   1_455 S
C1904  C7288   1.437   1_455 S
C1904  C7370   1.365   1_455 S
C1906  H1921   1.124   .     S
C1906  H2102   1.054   .     S
C1906  C2016   1.581   .     S
C1906  H1912   1.096   .     S
C1908  H2479   1.097   .     S
C1908  C2608   1.392   .     S
C1913  H1920   1.118   .     S
H1914  C2115   1.087   .     S
C1917  C7235   1.514   1_455 S
C1917  C7300   1.498   1_455 S
H1919  C2106   1.100   .     S
C1925  H2070   1.086   .     S
C1925  H2028   1.117   .     S
C1925  H2068   1.088   .     S
C1925  C2084   1.517   .     S
C1926  C2045   1.423   .     S
C1926  C1943   1.414   .     S
C1926  O1986   1.415   .     S
H1927  C1973   1.046   .     S
C1928  C2014   1.542   .     S
C1928  C2087   1.375   .     S
C1928  C7579   1.385   1_455 S
C1929  N1999   1.155   .     S
C1929  C1943   1.416   .     S
C1930  H1987   1.118   .     S
C1930  H1974   1.145   .     S
C1930  C2023   1.515   .     S
C1930  C2056   1.568   .     S
C1931  C2023   1.524   .     S
C1931  C1977   1.368   .     S
C1931  C2044   1.370   .     S
N1932  C4879   1.147   .     S
C1933  C2797   1.539   .     S
C1933  C2097   1.529   .     S
C1933  C2086   1.530   .     S
C1933  C7572   1.503   1_455 S
H1934  C1956   1.068   .     S
C1935  H2080   1.125   .     S
C1935  C2103   1.428   .     S
C1935  C2090   1.373   .     S
H1936  C2115   1.096   .     S
H1937  C1996   1.181   .     S
H1938  C1956   1.133   .     S
C1939  H2092   1.087   .     S
C1939  C4869   1.629   .     S
C1939  H2099   1.098   .     S
C1940  C1950   1.374   .     S
C1940  C2803   1.371   .     S
C1940  C2284   1.505   1_556 S
C1941  C2084   1.522   .     S
C1941  H2006   1.121   .     S
C1941  H1949   1.142   .     S
C1941  C2014   1.589   .     S
H1942  C2041   1.097   .     S
C1943  C1980   1.386   .     S
H1944  C2039   1.095   .     S
H1945  C1978   1.096   .     S
H1946  C2037   1.076   .     S
C1947  C1994   1.411   .     S
C1947  H1962   1.116   .     S
C1947  C1388   1.433   1_556 S
C1950  C1954   1.377   .     S
C1950  C1468   1.589   1_556 S
C1951  C1994   1.397   .     S
C1951  C2056   1.543   .     S
C1951  C1548   1.374   1_556 S
H1952  C7529   1.157   1_455 S
H1953  C2097   1.167   .     S
C1954  H2004   1.136   .     S
C1954  C2026   1.358   .     S
H1955  C1972   1.120   .     S
C1956  H1991   1.090   .     S
C1956  C2084   1.526   .     S
C1957  C4811   1.374   .     S
C1957  O2074   1.442   .     S
C1957  C1982   1.402   .     S
H1958  C2057   1.163   .     S
C1959  H2002   1.146   .     S
C1959  H2009   1.086   .     S
C1959  H1971   1.102   .     S
C1959  C2072   1.577   .     S
C1960  C2052   1.530   .     S
C1960  C4215   1.543   .     S
C1960  C4172   1.584   .     S
C1961  H2012   1.077   .     S
C1961  C2056   1.559   .     S
C1961  H2040   1.117   .     S
C1961  H1967   1.107   .     S
C1963  H1966   1.082   .     S
C1963  H2034   1.174   .     S
C1963  C2033   1.511   .     S
C1963  H1989   1.119   .     S
C1964  C2003   1.382   .     S
C1964  C2039   1.346   .     S
C1964  C2038   1.502   .     S
C1965  O2019   1.402   .     S
C1965  C2032   1.423   .     S
C1965  C1977   1.405   .     S
H1968  C2008   1.100   .     S
H1969  C2091   1.081   .     S
H1970  C1978   1.120   .     S
C1972  H2081   1.122   .     S
C1972  C2038   1.572   .     S
C1972  C2016   1.506   .     S
C1973  H2047   1.037   .     S
C1973  C1984   1.553   .     S
C1973  C2062   1.597   .     S
H1975  C2055   1.129   .     S
H1976  C2086   1.025   .     S
C1977  H2079   1.114   .     S
C1978  C2014   1.553   .     S
C1978  C2017   1.540   .     S
C1979  C2045   1.406   .     S
C1979  C4887   1.436   .     S
C1979  C2013   1.387   .     S
C1980  C2013   1.396   .     S
C1980  O2027   1.416   .     S
H1981  C2010   1.090   .     S
C1982  O2019   1.405   .     S
C1982  C4877   1.416   .     S
C1983  O2018   1.428   .     S
C1983  C2026   1.443   .     S
C1983  C2803   1.353   .     S
H1985  C2085   1.088   .     S
O1986  C2026   1.407   .     S
C1988  C2064   1.425   .     S
C1988  C2008   1.388   .     S
C1988  O2093   1.361   .     S
C1990  C2014   1.562   .     S
C1990  C2051   1.362   .     S
C1990  C2030   1.339   .     S
O1992  C1998   1.339   .     S
O1992  C2066   1.373   .     S
O1993  C2101   1.445   .     S
O1993  C2025   1.410   .     S
C1994  C2023   1.538   .     S
H1995  C1996   1.088   .     S
C1996  C2023   1.564   .     S
C1996  C2072   1.582   .     S
H1997  C2073   1.105   .     S
C1998  C2673   1.379   .     S
C1998  C2101   1.395   .     S
H2000  C2073   1.097   .     S
H2001  C2007   1.144   .     S
C2003  C2033   1.497   .     S
C2003  C2055   1.374   .     S
H2005  C2097   1.028   .     S
C2007  C2032   1.416   .     S
C2007  C2044   1.392   .     S
C2008  C2030   1.389   .     S
C2010  H2022   1.101   .     S
C2010  H2061   1.126   .     S
C2010  C2062   1.548   .     S
H2011  C2041   1.125   .     S
C2013  O4776   1.388   .     S
C2016  C2115   1.568   .     S
C2017  C2024   1.607   .     S
C2017  C2041   1.572   .     S
C2017  C2030   1.531   .     S
O2018  C2045   1.409   .     S
H2020  C2107   1.049   .     S
H2021  C2085   1.139   .     S
C2024  H2082   1.033   .     S
C2024  H2114   1.119   .     S
C2025  C2039   1.402   .     S
C2025  C2066   1.425   .     S
O2027  C2090   1.414   .     S
C2029  C2038   1.571   .     S
H2031  C2037   1.083   .     S
C2032  O2074   1.379   .     S
C2033  C2037   1.568   .     S
C2033  C2053   1.492   .     S
C2035  C2106   1.511   .     S
C2035  C2095   1.530   .     S
C2035  C2057   1.579   .     S
H2036  C2037   1.163   .     S
C2038  C2053   1.485   .     S
C2041  H2046   1.145   .     S
N2042  C2111   1.161   .     S
C2044  C2072   1.481   .     S
H2048  C2073   1.113   .     S
O2049  C2064   1.367   .     S
O2049  C2089   1.445   .     S
H2050  C2053   1.101   .     S
C2051  H2078   1.136   .     S
C2051  C2064   1.401   .     S
C2052  H2059   1.127   .     S
C2052  H2100   1.090   .     S
C2052  H2065   1.062   .     S
C2053  H2067   1.085   .     S
C2055  C2066   1.405   .     S
C2056  C2091   1.538   .     S
C2057  H2088   1.083   .     S
C2057  H2077   1.079   .     S
H2058  C2091   1.114   .     S
H2060  C2091   1.053   .     S
C2062  C2073   1.523   .     S
C2062  C2105   1.535   .     S
H2063  C2086   1.138   .     S
H2071  C2085   1.126   .     S
C2072  C2085   1.494   .     S
H2075  C2115   1.053   .     S
H2076  C2107   1.115   .     S
C2083  C2110   1.373   .     S
C2083  C2095   1.391   .     S
C2084  C2087   1.577   .     S
C2086  H2783   1.158   .     S
C2087  C7560   1.378   1_455 S
C2089  C1459   1.447   1_556 S
C2089  C1571   1.391   1_556 S
C2090  C2094   1.411   .     S
O2093  C1571   1.422   1_556 S
C2094  C4853   1.385   .     S
C2094  O4776   1.430   .     S
C2095  C2795   1.366   .     S
H2096  C4771   1.054   .     S
C2097  C7517   1.491   1_455 S
C2101  C2765   1.394   .     S
C2103  C4885   1.402   .     S
N2104  C7561   1.159   1_455 S
C2106  H7533   1.114   1_455 S
C2106  H7603   1.096   1_455 S
H2108  C7579   1.156   1_455 S
H2109  C2110   1.139   .     S
C2110  C2734   1.416   .     S
C2111  C1459   1.411   1_556 S
N2112  C2745   1.133   .     S
N2113  C1579   1.145   1_556 S
O2116  C2205   1.385   .     S
O2116  C2428   1.436   .     S
C2117  H2225   1.036   .     S
C2117  C2125   1.490   .     S
C2117  H2194   1.124   .     S
C2117  H2176   1.090   .     S
C2118  H2164   1.113   .     S
C2118  H2286   1.086   .     S
C2118  C2284   1.534   .     S
C2118  H2162   1.088   .     S
H2119  C2121   1.148   .     S
N2120  C2156   1.148   .     S
C2121  C2122   1.415   .     S
C2121  C2126   1.370   .     S
C2122  O2195   1.373   .     S
C2122  C2131   1.445   .     S
C2123  C2180   1.334   .     S
C2123  N2192   1.173   .     S
H2124  C2446   1.127   .     S
C2125  C2126   1.548   .     S
C2125  C2132   1.543   .     S
C2125  C2155   1.551   .     S
C2126  C2133   1.386   .     S
C2127  H2281   1.072   .     S
C2127  C2140   1.362   .     S
C2127  C2136   1.379   .     S
H2128  C2278   1.065   .     S
C2129  C2261   1.348   .     S
C2129  C2244   1.389   .     S
C2129  C7721   1.530   1_455 S
N2130  C2179   1.116   .     S
C2131  C2138   1.332   .     S
C2131  O2226   1.437   .     S
C2132  H2139   1.126   .     S
C2132  C2148   1.536   .     S
C2132  H2134   1.075   .     S
C2133  C2138   1.443   .     S
C2133  C2148   1.551   .     S
C2135  C2153   1.482   .     S
C2135  C2169   1.552   .     S
C2135  C2224   1.566   .     S
C2135  C2217   1.534   .     S
C2136  C2276   1.503   .     S
C2136  C2159   1.387   .     S
C2137  O2196   1.412   .     S
C2137  C2256   1.368   .     S
C2137  C2165   1.388   .     S
C2138  H2186   1.100   .     S
C2140  C2239   1.377   .     S
C2140  O2227   1.393   .     S
C2141  C2282   1.413   .     S
C2141  H2805   1.124   1_554 S
H2143  C2199   1.105   .     S
H2144  C2166   1.119   .     S
H2145  C2146   1.156   .     S
C2146  C2210   1.404   .     S
C2146  C2147   1.342   .     S
C2147  C2212   1.387   .     S
C2147  C2148   1.506   .     S
C2148  C2157   1.538   .     S
H2149  C2189   1.142   .     S
O2150  C2247   1.432   .     S
O2150  C2233   1.334   .     S
N2151  C2232   1.153   .     S
H2152  C2157   1.152   .     S
C2153  H2171   1.174   .     S
C2153  H68     1.103   1_565 S
C2153  H149    1.064   1_565 S
C2154  C2237   1.382   .     S
C2154  H2223   1.088   .     S
C2154  C2203   1.427   .     S
C2155  H2260   1.058   .     S
C2155  H2252   1.100   .     S
C2155  H2268   1.061   .     S
C2156  C2789   1.402   1_554 S
C2157  C2158   1.507   .     S
C2157  H2174   1.085   .     S
C2158  C2166   1.524   .     S
C2158  C2212   1.464   .     S
C2158  C2211   1.517   .     S
C2159  C2191   1.393   .     S
C2159  C2272   1.492   .     S
H2160  C2169   1.109   .     S
C2161  C2217   1.420   .     S
C2161  H2222   1.113   .     S
C2161  C2233   1.365   .     S
C2163  C2271   1.374   .     S
C2165  C2179   1.402   .     S
C2165  C2229   1.336   .     S
C2166  H2206   1.106   .     S
C2166  H2198   1.129   .     S
C2167  C2253   1.380   .     S
C2167  O2234   1.371   .     S
C2167  C143    1.438   1_565 S
H2168  C2211   1.164   .     S
C2169  H176    1.191   1_565 S
C2169  H182    1.125   1_565 S
C2170  C2229   1.404   .     S
C2170  F5082   1.344   .     S
C2170  C2183   1.402   .     S
H2172  C2245   1.069   .     S
C2173  O2193   1.366   .     S
C2173  C2199   1.418   .     S
C2173  C2230   1.405   .     S
C2175  C2184   1.385   .     S
C2175  C2266   1.369   .     S
C2175  C2214   1.413   .     S
O2177  C2246   1.403   .     S
O2177  C2203   1.350   .     S
C2178  C2245   1.379   .     S
C2178  C2418   1.565   .     S
C2180  C2246   1.379   .     S
C2180  C2254   1.413   .     S
C2181  H2215   1.055   .     S
C2181  C2207   1.385   .     S
C2181  C2212   1.338   .     S
C2182  O2226   1.425   .     S
C2182  C2240   1.417   .     S
C2182  C2184   1.418   .     S
C2183  C2256   1.419   .     S
C2183  C4927   1.419   .     S
C2184  O2195   1.439   .     S
H2185  C2211   1.088   .     S
H2187  C2257   1.078   .     S
C2188  H2238   1.107   .     S
C2188  C5241   1.547   .     S
C2188  C2231   1.524   .     S
C2188  H5061   1.027   .     S
C2189  H2259   1.142   .     S
C2189  C2231   1.563   .     S
C2189  H2202   1.122   .     S
C2190  C2241   1.428   .     S
C2190  O2785   1.388   1_554 S
C2190  C2799   1.399   1_554 S
C2191  H2236   1.134   .     S
C2191  C2239   1.403   .     S
O2193  C2220   1.407   .     S
O2196  C2239   1.412   .     S
C2197  C2240   1.406   .     S
C2197  C2214   1.392   .     S
C2197  O5089   1.459   .     S
C2199  C2244   1.386   .     S
H2200  C2211   1.092   .     S
H2201  C2224   1.112   .     S
C2203  C2233   1.390   .     S
C2204  C2287   1.509   .     S
C2204  C2224   1.592   .     S
C2204  C2244   1.560   .     S
C2204  C2237   1.582   .     S
C2205  C2275   1.416   .     S
C2205  C2216   1.377   .     S
C2207  C2210   1.482   .     S
C2207  O2234   1.400   .     S
H2208  C2280   1.122   .     S
C2209  C2216   1.401   .     S
C2210  O2248   1.400   .     S
O2213  C2230   1.407   .     S
O2213  C2218   1.402   .     S
C2216  C7720   1.405   1_455 S
C2217  C2237   1.387   .     S
C2218  C2220   1.457   .     S
C2218  C2271   1.361   .     S
H2219  C2257   1.085   .     S
C2220  C2799   1.403   1_554 S
H2221  C2224   1.079   .     S
O2227  C2256   1.405   .     S
H2228  C2278   1.094   .     S
C2229  F2242   1.349   .     S
C2230  C2261   1.382   .     S
C2231  C2270   1.546   .     S
C2231  C2288   1.487   .     S
C2232  C2240   1.467   .     S
O2235  C2263   1.406   .     S
O2235  C2411   1.354   .     S
C2241  C2271   1.398   .     S
H2243  C2270   1.115   .     S
C2245  C2277   1.396   .     S
C2246  C2247   1.433   .     S
C2247  C2251   1.374   .     S
O2248  C2253   1.425   .     S
H2249  C2261   1.117   .     S
H2250  C2270   1.104   .     S
C2251  C2255   1.385   .     S
C2251  C2263   1.370   .     S
C2253  C142    1.444   1_565 S
C2254  C2263   1.418   .     S
C2254  O2273   1.418   .     S
C2255  N14     1.162   1_565 S
C2257  H2464   1.113   .     S
C2257  C2418   1.496   .     S
H2258  C2270   1.130   .     S
N2262  C7717   1.221   1_455 S
H2264  C2360   1.070   .     S
H2265  C7658   1.037   1_455 S
C2267  C2269   1.376   .     S
C2267  C2275   1.370   .     S
C2267  C7726   1.401   1_455 S
C2269  N2283   1.188   .     S
C2272  C2278   1.528   .     S
C2272  C2280   1.555   .     S
C2272  C2403   1.534   .     S
O2273  C2354   1.319   .     S
F2274  C7625   1.377   1_455 S
C2275  O2355   1.383   .     S
C2276  C2370   1.521   .     S
C2276  C2403   1.605   .     S
C2276  C167    1.571   1_565 S
C2277  O4984   1.355   .     S
C2277  C4273   1.434   .     S
C2278  H170    1.088   1_565 S
C2280  H2285   1.118   .     S
C2280  H2398   1.095   .     S
C2282  O2785   1.359   1_554 S
C2284  C1940   1.505   1_554 S
C2287  H7693   1.096   1_455 S
C2287  C7721   1.545   1_455 S
C2287  H7729   1.129   1_455 S
C2288  C2342   1.404   .     S
C2288  C2410   1.361   .     S
O2289  C2299   1.368   .     S
O2289  C2452   1.338   .     S
H2290  C2454   1.129   .     S
H2291  C2406   1.062   .     S
C2292  C2394   1.402   .     S
C2292  C2373   1.372   .     S
C2292  C2416   1.537   .     S
H2293  C7733   1.074   1_455 S
H2294  C2423   1.109   .     S
H2295  C2403   1.126   .     S
H2296  C2312   1.136   .     S
C2297  C2390   1.587   .     S
C2297  H2365   1.072   .     S
C2297  C2363   1.575   .     S
C2297  H2377   1.121   .     S
H2298  C2303   1.123   .     S
C2299  C2311   1.385   .     S
C2299  C2404   1.434   .     S
C2300  C2364   1.397   .     S
C2300  C2435   1.429   .     S
C2300  F2327   1.399   .     S
O2301  C2396   1.395   .     S
O2301  C2422   1.410   .     S
C2302  C2334   1.430   .     S
C2302  N2346   1.152   .     S
C2303  H2409   1.115   .     S
C2303  C2390   1.566   .     S
C2303  H2337   1.057   .     S
H2304  C5210   1.153   .     S
C2305  C2367   1.355   .     S
C2305  C2408   1.520   .     S
C2305  C2335   1.423   .     S
H2306  C2324   1.097   .     S
H2307  C2328   1.100   .     S
C2308  C2617   1.476   .     S
C2308  O2347   1.400   .     S
C2308  C2372   1.342   .     S
C2309  N2395   1.181   .     S
C2309  C2372   1.461   .     S
C2310  H2431   1.083   .     S
C2310  C2374   1.456   .     S
C2310  C2445   1.376   .     S
C2311  C2373   1.414   .     S
C2311  O2316   1.387   .     S
C2312  H2389   1.115   .     S
C2312  C2390   1.546   .     S
C2312  H2382   1.106   .     S
N2313  C2386   1.140   .     S
O2314  C2318   1.396   .     S
O2314  C5284   1.405   .     S
H2315  C2462   1.091   .     S
O2316  C2402   1.401   .     S
H2317  C2443   1.133   .     S
C2318  C2619   1.394   .     S
C2318  C2372   1.371   .     S
H2319  C2442   1.081   .     S
C2320  C2420   1.399   .     S
C2320  C2385   1.410   .     S
C2320  O342    1.431   1_565 S
H2321  C2462   1.115   .     S
C2322  C2397   1.406   .     S
C2322  C2419   1.424   .     S
C2322  C2363   1.509   .     S
C2323  C2424   1.400   .     S
C2323  C2335   1.353   .     S
C2323  H2332   1.111   .     S
C2324  C5138   1.352   .     S
C2324  C2433   1.389   .     S
O2325  C2415   1.365   .     S
O2325  C2388   1.383   .     S
C2326  C2341   1.437   .     S
C2326  O2429   1.390   .     S
C2326  C2380   1.382   .     S
C2328  C2416   1.586   .     S
C2328  H2444   1.083   .     S
C2328  H7903   1.123   1_455 S
H2329  C2453   1.039   .     S
C2330  H2392   1.169   .     S
C2330  H2369   1.152   .     S
C2330  C2343   1.498   .     S
C2331  C2384   1.391   .     S
C2331  C2396   1.473   .     S
C2331  O2387   1.369   .     S
H2333  C2352   1.108   .     S
C2334  C2388   1.384   .     S
C2334  C2380   1.427   .     S
C2335  C2437   1.509   .     S
C2336  C2379   1.597   .     S
C2336  C2349   1.490   .     S
C2336  C2454   1.487   .     S
C2336  C305    1.564   1_565 S
H2338  C2446   1.109   .     S
H2339  C2419   1.079   .     S
C2340  H2358   1.103   .     S
C2340  H2434   1.120   .     S
C2340  C2437   1.563   .     S
C2340  H2421   1.129   .     S
C2341  C2351   1.378   .     S
C2341  C2362   1.395   .     S
C2342  C5241   1.522   .     S
C2342  C2384   1.416   .     S
C2343  C2628   1.529   .     S
C2343  C2445   1.572   .     S
C2343  C2352   1.539   .     S
C2344  C2415   1.396   .     S
C2344  O2417   1.380   .     S
C2344  C2356   1.394   .     S
O2345  C2380   1.423   .     S
O2345  C2433   1.362   .     S
O2347  C2374   1.387   .     S
C2348  C2391   1.388   .     S
C2348  H2438   1.069   .     S
C2348  C2415   1.398   .     S
C2349  C2363   1.519   .     S
C2349  H2357   1.133   .     S
C2349  H2414   1.088   .     S
H2350  C2353   1.150   .     S
C2351  C2388   1.433   .     S
C2351  O2417   1.414   .     S
C2352  H2383   1.095   .     S
C2352  H2432   1.075   .     S
C2353  H2400   1.057   .     S
C2353  C7884   1.548   1_455 S
C2353  H7928   1.134   1_455 S
C2354  C2411   1.423   .     S
C2354  C2443   1.389   .     S
O2355  C2424   1.396   .     S
C2356  C2379   1.397   .     S
C2356  H2425   1.093   .     S
C2359  C2405   1.369   .     S
C2359  C2412   1.341   .     S
C2359  C2385   1.393   .     S
C2360  C2437   1.514   .     S
C2360  H2371   1.052   .     S
C2360  H2450   1.091   .     S
C2361  C2366   1.474   .     S
C2361  N2426   1.167   .     S
C2362  N2439   1.140   .     S
C2363  C2391   1.516   .     S
C2364  F2399   1.405   .     S
C2364  C2366   1.415   .     S
C2366  C2402   1.366   .     S
C2367  C2428   1.423   .     S
C2367  H2461   1.115   .     S
H2368  C2373   1.120   .     S
C2370  C2393   1.394   .     S
C2370  C302    1.396   1_565 S
C2374  C2493   1.365   .     S
C2375  C2542   1.535   .     S
C2375  C2394   1.527   .     S
C2375  C7864   1.565   1_455 S
C2375  C7875   1.514   1_455 S
H2376  C2393   1.139   .     S
H2378  C206    1.097   1_565 S
C2379  C2391   1.389   .     S
C2384  H5279   1.080   .     S
C2385  O339    1.398   1_565 S
C2386  C2420   1.433   .     S
O2387  C2405   1.421   .     S
C2390  C2397   1.544   .     S
C2393  C2441   1.393   .     S
C2394  C2404   1.405   .     S
C2396  C2410   1.408   .     S
C2397  C2443   1.390   .     S
H2401  C2403   1.071   .     S
C2402  C2452   1.432   .     S
C2404  H2466   1.038   .     S
C2405  C2422   1.396   .     S
C2406  H2407   1.105   .     S
C2406  C2437   1.494   .     S
C2406  C2408   1.485   .     S
C2408  C2446   1.502   .     S
C2410  H2459   1.074   .     S
C2411  C2419   1.406   .     S
C2412  N5121   1.176   .     S
C2413  C2418   1.505   .     S
C2413  H2451   1.105   .     S
C2416  C7733   1.560   1_455 S
C2416  C7875   1.545   1_455 S
C2418  C2453   1.508   .     S
C2420  C2422   1.386   .     S
C2423  H2436   1.063   .     S
C2423  C2458   1.520   .     S
C2423  H203    1.096   1_565 S
C2424  C2428   1.378   .     S
H2427  C2442   1.118   .     S
O2429  C2430   1.434   .     S
C2430  C5256   1.372   .     S
C2430  C2433   1.447   .     S
C2435  C2507   1.412   .     S
C2435  C2452   1.394   .     S
H2440  C7831   1.097   1_455 S
C2441  O5246   1.427   .     S
C2441  C211    1.438   1_565 S
C2442  C2458   1.525   .     S
C2442  H2449   1.088   .     S
C2445  C2559   1.354   .     S
H2448  C2453   1.067   .     S
C2453  H2456   1.105   .     S
C2454  H2460   1.148   .     S
C2454  H246    1.101   1_565 S
C2455  C2458   1.564   .     S
C2455  C323    1.368   1_565 S
C2455  C7914   1.351   1_455 S
H2457  C207    1.093   1_565 S
C2458  C207    1.500   1_565 S
H2463  C7894   1.111   1_455 S
H2465  C364    1.096   1_565 S
H2467  C2475   1.076   .     S
C2468  H2536   1.055   .     S
C2468  H2469   1.069   .     S
C2468  H2582   1.102   .     S
C2468  C2534   1.494   .     S
C2470  C2488   1.568   .     S
C2470  C2548   1.568   .     S
C2470  C2475   1.566   .     S
C2470  C2566   1.533   .     S
H2471  C8016   1.096   1_455 S
H2472  C2475   1.115   .     S
C2473  C2557   1.534   .     S
C2473  H2590   1.112   .     S
C2473  H2518   1.079   .     S
C2473  H2550   1.087   .     S
C2474  C2511   1.371   .     S
C2474  H2484   1.100   .     S
C2474  C2481   1.411   .     S
C2475  H2527   1.084   .     S
O2476  C2561   1.381   .     S
O2476  C2574   1.368   .     S
C2477  C2532   1.381   .     S
C2477  C2526   1.378   .     S
C2477  H2502   1.103   .     S
C2478  C2566   1.548   .     S
C2478  C2559   1.466   .     S
C2478  C2628   1.515   .     S
C2478  C2520   1.514   .     S
H2480  C2519   1.107   .     S
C2481  C2586   1.593   .     S
C2481  C2564   1.383   .     S
C2482  C2570   1.525   .     S
C2482  H2572   1.129   .     S
C2482  H2497   1.152   .     S
C2482  H2568   1.149   .     S
C2483  C2492   1.407   .     S
C2483  C2547   1.369   .     S
C2483  O8117   1.392   1_455 S
O2485  C2526   1.375   .     S
O2485  C2505   1.374   .     S
H2486  C8095   1.133   1_455 S
C2487  O2500   1.458   .     S
C2487  C2565   1.439   .     S
C2487  C2526   1.407   .     S
C2488  C2520   1.363   .     S
C2488  C2506   1.390   .     S
C2489  C2600   1.513   .     S
C2489  C515    1.366   1_565 S
C2489  C8048   1.380   1_455 S
C2490  C2614   1.357   .     S
C2490  C2542   1.389   .     S
C2490  H2629   1.076   .     S
C2491  C2539   1.371   .     S
C2491  C2511   1.441   .     S
C2491  O2573   1.402   .     S
C2492  O2581   1.398   .     S
C2492  C2494   1.397   .     S
C2493  C2554   1.407   .     S
C2493  O2578   1.357   .     S
C2494  C2618   1.386   .     S
C2495  C2496   1.404   .     S
C2495  N2508   1.149   .     S
C2496  C2619   1.397   .     S
C2496  C2617   1.374   .     S
C2498  C2576   1.384   .     S
C2498  C2587   1.415   .     S
C2498  C2597   1.412   .     S
H2499  C2628   1.099   .     S
O2500  C2529   1.404   .     S
C2501  H2560   1.066   .     S
C2501  H2540   1.148   .     S
C2501  C2514   1.537   .     S
C2501  C2586   1.589   .     S
C2503  C2600   1.549   .     S
C2503  C2557   1.529   .     S
C2503  H2601   1.138   .     S
C2503  H2604   1.079   .     S
H2504  C2566   1.141   .     S
C2505  C2529   1.428   .     S
C2505  C2620   1.373   .     S
C2506  H2512   1.143   .     S
C2506  C2574   1.370   .     S
C2507  N2552   1.128   .     S
H2509  C2615   1.120   .     S
N2510  C2544   1.140   .     S
C2511  O2567   1.355   .     S
C2513  C5313   1.395   .     S
C2513  O2672   1.356   .     S
C2513  C376    1.388   1_565 S
C2514  C2546   1.520   .     S
C2514  C2615   1.504   .     S
C2514  C2564   1.484   .     S
C2515  O2579   1.394   .     S
C2515  C2556   1.428   .     S
C2515  C2625   1.396   .     S
C2516  H2598   1.145   .     S
C2516  H2616   1.038   .     S
C2516  C2534   1.531   .     S
C2516  H2569   1.116   .     S
H2517  C2548   1.082   .     S
C2519  H2523   1.104   .     S
C2519  C2570   1.512   .     S
C2519  H2531   1.063   .     S
C2520  C2575   1.384   .     S
N2521  C2587   1.186   .     S
H2522  C2585   1.111   .     S
H2524  C2585   1.129   .     S
H2525  C2565   1.111   .     S
C2528  O2573   1.417   .     S
C2528  C2576   1.415   .     S
C2528  C2555   1.389   .     S
C2529  C5402   1.395   .     S
C2530  O2579   1.364   .     S
C2530  C2723   1.413   .     S
C2530  C8007   1.378   1_455 S
C2532  C2537   1.381   .     S
C2532  C2570   1.541   .     S
C2533  C2547   1.395   .     S
C2533  N8114   1.143   1_455 S
C2534  C2596   1.502   .     S
C2534  C2605   1.526   .     S
H2535  C2546   1.132   .     S
C2537  C2565   1.386   .     S
C2537  C2586   1.607   .     S
H2538  C2548   1.092   .     S
C2539  C2564   1.352   .     S
C2539  H2551   1.120   .     S
N2541  C2606   1.149   .     S
C2542  C8047   1.396   1_455 S
H2543  C2593   1.139   .     S
C2544  C2556   1.379   .     S
H2545  C2605   1.098   .     S
C2546  H511    1.140   1_565 S
C2546  H519    1.034   1_565 S
C2547  C2584   1.348   .     S
C2548  H2580   1.097   .     S
H2549  C2636   1.099   .     S
C2553  O2563   1.364   .     S
C2553  C2556   1.388   .     S
C2553  C2621   1.431   .     S
C2554  H2592   1.130   .     S
C2554  C2559   1.383   .     S
C2555  C2613   1.415   .     S
C2555  C2602   1.412   .     S
C2557  C2612   1.550   .     S
C2557  C2593   1.533   .     S
N2558  C2611   1.176   .     S
C2561  C2622   1.376   .     S
H2562  C2566   1.096   .     S
O2563  C2595   1.346   .     S
O2567  C2576   1.369   .     S
C2570  C2585   1.504   .     S
H2571  C2615   1.072   .     S
C2574  C2610   1.397   .     S
C2575  H2624   1.155   .     S
C2575  C2610   1.396   .     S
H2577  C2591   1.138   .     S
O2578  C2617   1.432   .     S
O2581  C2614   1.414   .     S
O2583  C2608   1.438   .     S
O2583  C2584   1.365   .     S
C2584  C2618   1.379   .     S
C2585  C2586   1.547   .     S
O2588  C2597   1.430   .     S
O2588  C2674   1.386   .     S
O2589  C2619   1.389   .     S
O2589  C5427   1.415   .     S
C2591  C2596   1.365   .     S
C2591  C2595   1.398   .     S
C2593  H2599   1.152   .     S
C2593  H2607   1.133   .     S
H2594  C2605   1.111   .     S
C2595  C2627   1.428   .     S
C2596  C2755   1.356   .     S
C2597  C2613   1.409   .     S
C2600  C2609   1.592   .     S
C2600  C8100   1.544   1_455 S
C2602  N590    1.167   1_565 S
H2603  C2615   1.128   .     S
C2605  C2725   1.505   .     S
C2606  C2620   1.340   .     S
C2609  C2612   1.364   .     S
C2609  C421    1.375   1_565 S
C2611  C2622   1.435   .     S
C2612  C503    1.391   1_565 S
C2613  O2641   1.379   .     S
C2614  C8115   1.413   1_455 S
C2620  C5344   1.357   .     S
C2621  O2656   1.442   .     S
C2621  C2649   1.422   .     S
H2623  C2628   1.134   .     S
C2625  O2634   1.410   .     S
C2625  C2649   1.417   .     S
H2626  C8100   1.120   1_455 S
C2627  C2717   1.435   .     S
C2627  O2656   1.414   .     S
H2630  C2640   1.116   .     S
C2631  C2734   1.484   .     S
C2631  C2795   1.378   .     S
C2631  O2692   1.384   .     S
H2632  C2777   1.061   .     S
H2633  C2651   1.123   .     S
O2634  C2723   1.410   .     S
C2635  H2768   1.106   .     S
C2635  H2665   1.128   .     S
C2635  H602    1.132   1_565 S
C2635  C570    1.502   1_565 S
C2636  C2670   1.397   .     S
C2636  C2659   1.346   .     S
C2637  O2771   1.391   .     S
C2637  C2741   1.422   .     S
C2637  C2673   1.379   .     S
C2638  C2747   1.468   .     S
C2638  C2654   1.554   .     S
C2638  C2758   1.562   .     S
C2638  C2693   1.540   .     S
C2639  N2708   1.157   .     S
C2639  C2765   1.390   .     S
C2640  H2736   1.166   .     S
C2640  H2738   1.142   .     S
C2640  C2770   1.571   .     S
O2641  C2669   1.429   .     S
O2642  C2734   1.359   .     S
O2642  C2776   1.394   .     S
C2643  C2649   1.382   .     S
C2643  N2644   1.148   .     S
C2645  O2722   1.394   .     S
C2645  C668    1.452   1_565 S
C2645  C683    1.404   1_565 S
H2646  C2654   1.130   .     S
C2647  C2798   1.363   .     S
C2647  C2702   1.375   .     S
C2647  C2786   1.435   .     S
H2648  C2717   1.116   .     S
C2650  C2652   1.424   .     S
C2650  C2776   1.364   .     S
C2650  C2660   1.362   .     S
C2651  C2724   1.347   .     S
C2651  C2762   1.413   .     S
C2652  N2730   1.164   .     S
H2653  C2679   1.158   .     S
C2654  H2737   1.091   .     S
C2654  H2800   1.093   .     S
C2655  C2766   1.364   .     S
C2655  C2774   1.529   .     S
C2655  C2710   1.360   .     S
C2657  C2660   1.429   .     S
C2657  C2685   1.374   .     S
C2657  O2735   1.435   .     S
C2658  C2762   1.417   .     S
C2658  C2720   1.419   .     S
C2658  O2675   1.433   .     S
C2659  C2769   1.376   .     S
C2659  C2725   1.575   .     S
C2660  O2662   1.457   .     S
C2661  C2702   1.440   .     S
C2661  C2789   1.401   .     S
C2661  O688    1.363   1_565 S
O2662  C2742   1.362   .     S
H2663  C2757   1.104   .     S
C2664  C2789   1.398   .     S
C2664  C2786   1.399   .     S
C2664  O5073   1.389   1_556 S
C2666  N2694   1.151   .     S
C2666  C2713   1.439   .     S
C2667  C2739   1.381   .     S
C2667  N2687   1.185   .     S
H2668  C2767   1.166   .     S
C2669  C2674   1.398   .     S
C2669  C2719   1.355   .     S
C2670  O2682   1.417   .     S
C2670  C2683   1.461   .     S
H2671  C2758   1.087   .     S
O2672  C5426   1.391   .     S
C2673  C2745   1.422   .     S
C2674  C8269   1.410   1_455 S
O2675  C2741   1.381   .     S
H2676  C2803   1.113   .     S
H2677  C2746   1.128   .     S
N2678  C2781   1.169   .     S
C2679  H2775   1.096   .     S
C2679  H2732   1.070   .     S
C2679  C2706   1.531   .     S
O2680  C2743   1.408   .     S
O2680  C2683   1.358   .     S
C2681  O2735   1.329   .     S
C2681  C2742   1.384   .     S
C2681  C2686   1.402   .     S
O2682  C2712   1.410   .     S
C2683  C2715   1.386   .     S
C2684  H2711   1.096   .     S
C2684  H5478   1.096   .     S
C2684  H5586   1.109   .     S
C2684  C5578   1.529   .     S
C2685  C2782   1.353   .     S
C2685  C2718   1.440   .     S
C2686  H2703   1.107   .     S
C2686  C2693   1.426   .     S
C2688  C2724   1.409   .     S
C2688  C2720   1.404   .     S
C2688  C2695   1.496   .     S
C2689  C2701   1.426   .     S
C2689  C2766   1.372   .     S
C2689  O2699   1.340   .     S
H2690  C2748   1.094   .     S
H2691  C2726   1.146   .     S
O2692  C2718   1.355   .     S
C2693  C2700   1.420   .     S
C2695  C2767   1.563   .     S
C2695  C2726   1.531   .     S
C2695  C2777   1.512   .     S
H2696  C5451   1.035   .     S
H2697  C2720   1.064   .     S
H2698  C2714   1.106   .     S
O2699  C2728   1.369   .     S
C2700  C2749   1.534   .     S
C2700  C2714   1.364   .     S
C2701  O2773   1.402   .     S
C2701  C2748   1.398   .     S
C2702  O2722   1.394   .     S
H2704  C2747   1.106   .     S
H2705  C2797   1.125   .     S
C2706  C2793   1.537   .     S
C2706  C2707   1.566   .     S
C2706  C2710   1.485   .     S
C2707  H2733   1.182   .     S
C2707  H2729   1.096   .     S
C2707  H674    1.057   1_565 S
C2709  O2773   1.390   .     S
C2709  C2739   1.395   .     S
C2709  C2728   1.399   .     S
C2710  C2748   1.419   .     S
C2712  C2713   1.379   .     S
C2712  C2743   1.405   .     S
C2713  C2728   1.376   .     S
C2714  C2742   1.395   .     S
C2715  H2752   1.119   .     S
C2715  C2769   1.367   .     S
H2716  C2758   1.133   .     S
C2717  C2755   1.342   .     S
C2718  C2776   1.387   .     S
C2719  H2759   1.092   .     S
C2719  C2753   1.346   .     S
H2721  C2767   1.219   .     S
C2723  C8215   1.403   1_455 S
C2724  C2749   1.564   .     S
C2725  C2755   1.552   .     S
C2725  C2757   1.541   .     S
C2726  H2760   1.101   .     S
C2726  H2731   1.124   .     S
H2727  C2746   1.058   .     S
C2739  C2743   1.377   .     S
H2740  C2777   1.105   .     S
C2741  C2765   1.365   .     S
H2744  C2766   1.109   .     S
C2746  C2770   1.524   .     S
C2746  H2754   1.052   .     S
C2747  H2761   1.083   .     S
C2747  C2749   1.535   .     S
C2749  C2767   1.521   .     S
H2750  C2802   1.098   .     S
H2751  C2802   1.062   .     S
C2753  C2774   1.491   .     S
C2753  C8274   1.413   1_455 S
H2756  C2757   1.122   .     S
C2757  C2770   1.550   .     S
C2758  H2778   1.103   .     S
C2762  O2771   1.393   .     S
H2763  C5451   1.099   .     S
H2764  C2777   1.100   .     S
C2769  C2770   1.535   .     S
N2772  C2782   1.167   .     S
C2774  C2793   1.525   .     S
C2774  C8265   1.558   1_455 S
H2779  C2793   1.112   .     S
N2780  C621    1.171   1_565 S
C2781  C2799   1.383   .     S
H2784  C538    1.042   1_565 S
O2785  C2190   1.388   1_556 S
O2785  C2282   1.359   1_556 S
C2786  O5504   1.395   .     S
H2787  C8247   1.073   1_455 S
H2788  C5552   1.125   .     S
C2789  C2156   1.402   1_556 S
H2790  C2797   1.122   .     S
H2791  C668    1.087   1_565 S
H2792  C542    1.099   1_565 S
C2793  H8260   1.085   1_455 S
H2794  C8265   1.176   1_455 S
C2795  H2796   1.081   .     S
C2797  H2804   1.132   .     S
C2798  N5601   1.159   .     S
C2799  C2190   1.399   1_556 S
C2799  C2220   1.403   1_556 S
H2801  C5552   1.117   .     S
C2802  C5578   1.533   .     S
C2802  H5439   1.117   .     S
H2805  C2141   1.124   1_556 S
H2806  C542    1.081   1_565 S
H2807  C538    1.130   1_565 S
H2808  C2944   1.092   .     S
C2809  H2881   1.091   .     S
C2809  H5636   1.122   .     S
C2809  C3439   1.584   1_554 S
C2809  H5609   1.053   1_544 S
C2810  C2964   1.401   .     S
C2810  C2854   1.376   .     S
C2810  C2896   1.545   .     S
O2811  C2961   1.404   .     S
O2811  C2891   1.370   .     S
C2812  C2953   1.518   .     S
C2812  C3002   1.538   .     S
C2812  C2948   1.489   .     S
C2812  C2871   1.482   .     S
C2813  C2963   1.381   .     S
C2813  C2951   1.399   .     S
C2813  C2835   1.401   .     S
C2814  O2878   1.442   .     S
C2814  C2982   1.403   .     S
C2814  C2887   1.368   .     S
C2815  H2846   1.132   .     S
C2815  C2918   1.378   .     S
C2815  C2819   1.408   .     S
H2816  C2895   1.131   .     S
C2817  C2831   1.522   .     S
C2817  C2947   1.576   .     S
C2817  C2917   1.617   .     S
C2817  C2900   1.503   .     S
C2818  C2984   1.347   .     S
C2818  C2971   1.488   .     S
C2818  C3526   1.419   1_554 S
C2819  C2845   1.356   .     S
C2819  C2916   1.503   .     S
H2820  C2869   1.125   .     S
C2821  C2986   1.397   .     S
C2821  C2923   1.348   .     S
C2821  C5051   1.417   1_545 S
H2822  C2826   1.137   .     S
C2823  O2999   1.375   .     S
C2823  C3170   1.460   .     S
C2823  C2960   1.418   .     S
H2824  C2893   1.054   .     S
C2825  H2962   1.044   .     S
C2825  H2983   1.055   .     S
C2825  H2905   1.160   .     S
C2825  C2959   1.509   .     S
C2826  C2948   1.387   .     S
C2826  C2961   1.404   .     S
C2827  C2880   1.491   .     S
C2827  C2828   1.606   .     S
C2827  C2845   1.579   .     S
C2827  C2952   1.507   .     S
C2828  H2889   1.152   .     S
C2828  H2928   1.105   .     S
C2828  C2834   1.533   .     S
H2829  C2944   1.122   .     S
C2830  C2906   1.392   .     S
C2830  C3418   1.348   1_554 S
C2830  O5613   1.417   1_544 S
C2831  H2978   1.118   .     S
C2831  H2833   1.074   .     S
C2831  H2932   1.134   .     S
C2832  C2918   1.394   .     S
C2832  O2877   1.386   .     S
C2832  C2956   1.388   .     S
C2834  C2866   1.542   .     S
C2834  C2949   1.536   .     S
C2834  C3441   1.584   1_554 S
C2835  N2903   1.115   .     S
O2836  C5641   1.415   .     S
O2836  C2857   1.400   .     S
C2837  H2958   1.060   .     S
C2837  H2930   1.123   .     S
C2837  C2959   1.479   .     S
C2837  H2868   1.070   .     S
C2838  N2873   1.135   .     S
C2838  C4915   1.438   1_545 S
C2839  C2995   1.412   .     S
C2839  C2910   1.380   .     S
C2839  O2874   1.330   .     S
N2840  C3685   1.207   .     S
H2841  C2917   1.099   .     S
H2842  C2887   1.085   .     S
C2843  C2909   1.428   .     S
C2843  C2951   1.376   .     S
C2843  O2878   1.407   .     S
O2844  C2935   1.402   .     S
O2844  C2851   1.394   .     S
C2845  C2956   1.386   .     S
C2847  C2921   1.499   .     S
C2847  C2871   1.521   .     S
C2847  C2864   1.539   .     S
H2848  C3597   1.078   .     S
H2849  C2960   1.097   .     S
H2850  C2984   1.111   .     S
C2851  C2970   1.436   .     S
C2851  C5062   1.367   1_545 S
C2852  O2853   1.415   .     S
C2852  C2935   1.404   .     S
C2852  C2858   1.411   .     S
O2853  C2970   1.355   .     S
C2854  C2960   1.403   .     S
C2854  C2902   1.538   .     S
O2855  C2890   1.411   .     S
O2855  C2915   1.390   .     S
O2856  C2986   1.422   .     S
O2856  C2933   1.384   .     S
C2857  C2858   1.401   .     S
C2857  C5666   1.438   .     S
C2858  C2860   1.466   .     S
C2859  O2985   1.358   .     S
C2859  C2990   1.457   .     S
C2859  C2895   1.377   .     S
C2860  N2862   1.178   .     S
C2861  C3155   1.469   .     S
C2861  C2913   1.580   .     S
C2861  C2927   1.536   .     S
C2861  C2872   1.583   .     S
H2863  C2969   1.111   .     S
C2864  C2955   1.356   .     S
H2865  C5619   1.138   .     S
C2866  C2992   1.423   .     S
C2866  C2880   1.402   .     S
C2867  C2913   1.402   .     S
C2867  C2924   1.408   .     S
C2867  C2896   1.551   .     S
C2869  H2907   1.089   .     S
C2869  C2940   1.473   .     S
C2869  C2959   1.550   .     S
C2870  H2979   1.108   .     S
C2870  C2900   1.390   .     S
C2870  C3370   1.389   1_554 S
C2871  H2945   1.155   .     S
C2871  H2966   1.145   .     S
C2872  H2976   1.139   .     S
C2872  H2943   1.109   .     S
C2872  H2988   1.092   .     S
O2874  C2914   1.372   .     S
H2875  C2899   1.062   .     S
H2876  C3002   1.093   .     S
O2877  C3644   1.458   .     S
H2879  C2924   1.153   .     S
C2880  C2895   1.383   .     S
H2882  C2917   1.100   .     S
H2883  C2980   1.079   .     S
O2884  C2951   1.453   .     S
O2884  C2982   1.408   .     S
H2885  C2897   1.108   .     S
H2886  C2899   1.145   .     S
C2887  C2998   1.388   .     S
H2888  C2952   1.205   .     S
C2890  C2933   1.433   .     S
C2890  C2955   1.371   .     S
C2891  C2963   1.364   .     S
C2891  C2909   1.368   .     S
H2892  C2956   1.131   .     S
C2893  C2971   1.561   .     S
C2893  H3410   1.123   1_554 S
C2893  C3439   1.523   1_554 S
H2894  C2920   1.110   .     S
C2896  C2927   1.553   .     S
C2896  C2899   1.562   .     S
C2897  C2970   1.396   .     S
C2897  C5020   1.405   1_545 S
O2898  C2906   1.376   .     S
O2898  C4969   1.389   1_545 S
C2899  C2902   1.532   .     S
C2900  C2938   1.399   .     S
H2901  C2949   1.168   .     S
C2902  C2969   1.550   .     S
C2902  C2980   1.557   .     S
C2904  N2946   1.149   .     S
C2904  C2910   1.390   .     S
C2906  C2984   1.383   .     S
H2908  C2927   1.106   .     S
C2909  C2926   1.406   .     S
C2910  C2965   1.441   .     S
H2911  C2949   1.068   .     S
H2912  C2920   1.143   .     S
C2913  C3078   1.365   .     S
C2914  C2997   1.428   .     S
C2914  C2919   1.388   .     S
C2915  C2986   1.404   .     S
C2915  C4967   1.417   1_545 S
C2916  C2920   1.557   .     S
C2916  C2952   1.508   .     S
C2916  C2944   1.519   .     S
C2917  C2971   1.547   .     S
C2918  O3595   1.414   .     S
C2919  H2950   1.133   .     S
C2919  C2941   1.349   .     S
C2920  H2936   1.139   .     S
C2921  C2948   1.375   .     S
C2921  C2942   1.403   .     S
H2922  C2969   1.090   .     S
C2924  C3169   1.402   .     S
C2925  C2942   1.425   .     S
C2925  C2961   1.405   .     S
C2925  O2931   1.402   .     S
C2926  N2967   1.166   .     S
C2927  H2975   1.116   .     S
H2929  C2980   1.052   .     S
O2931  C2963   1.406   .     S
H2934  C2953   1.124   .     S
C2935  C3004   1.381   .     S
H2937  C2944   1.094   .     S
C2938  C2971   1.551   .     S
C2938  C3478   1.403   1_554 S
H2939  C2952   1.107   .     S
C2940  C2994   1.541   .     S
C2940  C3664   1.531   .     S
C2940  C3621   1.529   .     S
C2941  C2959   1.512   .     S
C2941  C2994   1.425   .     S
C2942  H2981   1.093   .     S
C2947  H5676   1.066   .     S
C2947  H5760   1.056   .     S
C2947  H2991   1.102   .     S
C2949  H2972   1.081   .     S
C2953  H2973   1.150   .     S
C2953  H2977   1.110   .     S
H2954  C3708   1.095   .     S
C2955  H2957   1.110   .     S
C2964  C3170   1.362   .     S
C2964  H3144   1.092   .     S
C2965  C2993   1.404   .     S
C2965  O3458   1.460   1_554 S
H2968  O2985   0.989   .     S
C2969  H2974   1.197   .     S
C2980  H2989   1.146   .     S
C2982  C3006   1.370   .     S
O2987  C2997   1.362   .     S
O2987  C2995   1.369   .     S
C2990  C2992   1.394   .     S
C2990  O3420   1.380   1_554 S
C2992  H3368   1.139   1_554 S
C2993  C3536   1.407   .     S
C2993  O4045   1.406   1_554 S
C2994  C2996   1.356   .     S
C2995  C3536   1.374   .     S
C2996  H3564   1.148   .     S
C2996  C2997   1.396   .     S
C2998  C3153   1.382   .     S
C2998  C5265   1.548   1_545 S
O2999  C3083   1.424   .     S
H3000  C3616   1.136   .     S
H3001  C3118   1.069   .     S
C3002  H3494   1.074   1_554 S
C3002  H3523   1.159   1_554 S
H3003  C3155   1.100   .     S
C3004  C5667   1.388   .     S
C3004  C5666   1.417   .     S
H3005  C5293   1.126   1_545 S
C3006  H3036   1.090   .     S
C3006  C3153   1.402   .     S
C3007  O3119   1.387   .     S
C3007  C3067   1.448   .     S
C3007  C3051   1.408   .     S
N3008  C3113   1.143   .     S
C3009  C3077   1.437   .     S
C3009  C3068   1.439   .     S
C3009  O3129   1.353   .     S
C3010  N3044   1.145   .     S
C3010  C3099   1.352   .     S
C3011  C3104   1.391   .     S
C3011  C3092   1.499   .     S
C3011  C3107   1.389   .     S
H3012  C3104   1.104   .     S
H3013  C3155   1.089   .     S
C3014  C3137   1.371   .     S
C3014  C5811   1.503   .     S
C3014  C3031   1.365   .     S
H3015  C3039   1.050   .     S
N3016  C3058   1.208   .     S
H3017  C3111   1.134   .     S
C3018  C3055   1.555   .     S
C3018  C3098   1.366   .     S
C3018  C3148   1.386   .     S
N3019  C3037   1.165   .     S
C3020  C3084   1.389   .     S
C3020  C3077   1.391   .     S
C3020  O3066   1.404   .     S
C3021  C3029   1.348   .     S
C3021  C3053   1.408   .     S
C3021  C3297   1.408   .     S
C3022  N5876   1.118   .     S
C3022  C3024   1.392   .     S
H3023  C3133   1.090   .     S
C3024  C3068   1.399   .     S
C3024  C3084   1.396   .     S
C3025  H3128   1.107   .     S
C3025  C5855   1.421   .     S
C3025  C3067   1.386   .     S
C3026  O3090   1.409   .     S
C3026  C5133   1.416   1_545 S
C3026  C5220   1.370   1_545 S
O3027  C3043   1.370   .     S
O3027  C3100   1.380   .     S
C3028  H3054   1.073   .     S
C3028  C3033   1.401   .     S
C3028  C3107   1.424   .     S
C3029  O3146   1.377   .     S
C3029  C3125   1.440   .     S
C3030  C3089   1.362   .     S
C3030  C3148   1.370   .     S
C3030  H3334   1.105   .     S
C3031  C3076   1.347   .     S
C3031  C5907   1.523   .     S
C3032  O3146   1.379   .     S
C3032  C3137   1.414   .     S
C3032  C3139   1.401   .     S
C3033  O3048   1.427   .     S
C3033  C3059   1.414   .     S
C3034  C3055   1.559   .     S
C3034  H3106   1.036   .     S
C3034  H3862   1.055   .     S
C3034  C3149   1.489   .     S
H3035  C3111   1.089   .     S
C3037  C3061   1.413   .     S
C3038  H3093   1.124   .     S
C3038  H3142   1.149   .     S
C3038  C3737   1.550   .     S
C3038  H3143   1.056   .     S
C3039  C3158   1.558   .     S
C3039  H3141   1.110   .     S
C3039  H3123   1.057   .     S
H3040  C5162   1.079   1_545 S
C3041  H3145   1.122   .     S
C3041  C3082   1.563   .     S
C3041  H3117   1.056   .     S
C3041  H3115   1.081   .     S
N3042  C3150   1.159   .     S
C3043  C3061   1.397   .     S
C3043  C3047   1.397   .     S
H3045  C3155   1.131   .     S
H3046  C3076   1.110   .     S
C3047  O3341   1.432   .     S
C3047  C3152   1.362   .     S
O3048  C3052   1.386   .     S
C3049  O3066   1.348   .     S
C3049  C5905   1.477   .     S
C3049  C5226   1.361   1_545 S
C3050  H3063   1.072   .     S
C3050  H3130   1.075   .     S
C3050  C3082   1.536   .     S
C3050  C3092   1.554   .     S
C3051  H3080   1.087   .     S
C3051  C3071   1.386   .     S
C3052  C3060   1.389   .     S
C3052  C3064   1.402   .     S
C3053  O3096   1.398   .     S
C3053  C3070   1.391   .     S
C3055  C3748   1.554   .     S
C3055  C3165   1.513   .     S
H3056  C3075   1.086   .     S
C3057  N3110   1.119   .     S
C3057  C3077   1.408   .     S
C3058  C3060   1.383   .     S
C3059  C3104   1.380   .     S
C3059  O3132   1.378   .     S
C3060  C3062   1.382   .     S
C3061  C3101   1.362   .     S
C3062  O3119   1.452   .     S
C3062  C3109   1.396   .     S
C3064  C3099   1.384   .     S
C3064  O3132   1.395   .     S
H3065  C3111   1.086   .     S
C3067  O3122   1.437   .     S
C3068  O3164   1.404   .     S
C3069  C3149   1.529   .     S
C3069  C3075   1.389   .     S
C3069  C3221   1.386   .     S
C3070  O3134   1.409   .     S
C3070  C3102   1.385   .     S
C3071  C5907   1.518   .     S
C3071  C5855   1.369   .     S
H3072  C3081   1.079   .     S
C3073  C5854   1.415   .     S
C3073  C3131   1.393   .     S
C3073  C3086   1.393   .     S
H3074  C3168   1.158   .     S
C3075  C3100   1.426   .     S
C3076  C3139   1.415   .     S
C3078  H3154   1.050   .     S
C3078  C3136   1.372   .     S
C3079  C3160   1.390   .     S
C3079  C3092   1.525   .     S
C3079  C3112   1.370   .     S
C3081  H3140   1.118   .     S
C3081  H3091   1.118   .     S
C3081  C3088   1.508   .     S
C3082  C3118   1.518   .     S
C3082  C3112   1.505   .     S
C3083  C5814   1.357   .     S
C3083  C3131   1.413   .     S
C3084  O5804   1.417   .     S
H3085  C5293   1.126   1_545 S
C3086  N3120   1.162   .     S
C3087  H3162   1.107   .     S
C3087  H3291   1.133   .     S
C3087  H3095   1.123   .     S
C3087  C3227   1.540   .     S
C3088  C3107   1.549   .     S
C3088  C3133   1.510   .     S
C3088  C3111   1.576   .     S
C3089  O3096   1.434   .     S
C3089  C3097   1.420   .     S
O3090  C3101   1.461   .     S
C3092  C3133   1.532   .     S
C3094  C3152   1.412   .     S
C3094  O3126   1.337   .     S
C3094  C3101   1.454   .     S
C3097  O3134   1.339   .     S
C3097  C3098   1.443   .     S
C3098  H3157   1.099   .     S
C3099  C3109   1.397   .     S
C3100  C3282   1.400   .     S
C3102  C3125   1.399   .     S
C3102  C3138   1.407   .     S
H3103  C5213   1.119   1_545 S
H3105  C3133   1.075   .     S
H3108  C5139   1.108   1_545 S
C3109  O3122   1.400   .     S
C3112  C3805   1.386   .     S
C3113  C3114   1.417   .     S
C3114  C5159   1.361   1_545 S
C3114  C5278   1.418   1_545 S
H3116  C3118   1.096   .     S
C3118  H3172   1.108   .     S
H3121  C3160   1.129   .     S
O3124  C3125   1.371   .     S
O3124  C3139   1.381   .     S
O3126  C5133   1.447   1_545 S
O3127  C3131   1.408   .     S
O3127  C3170   1.379   .     S
O3129  C3136   1.416   .     S
N3135  C3138   1.167   .     S
C3136  C3169   1.435   .     S
C3137  H3309   1.083   .     S
H3147  C3165   1.056   .     S
C3148  C3149   1.563   .     S
C3149  C3322   1.557   .     S
C3150  C3161   1.410   .     S
H3151  C3607   1.091   .     S
C3153  C3158   1.519   .     S
H3156  C3337   1.077   .     S
C3158  C5255   1.580   1_545 S
C3158  C5283   1.549   1_545 S
H3159  C5283   1.085   1_545 S
C3160  C3814   1.372   .     S
C3161  C3250   1.382   .     S
C3161  C5270   1.384   1_545 S
H3163  C5958   1.125   .     S
O3164  C3169   1.369   .     S
C3165  H3811   1.099   .     S
C3165  H3822   1.077   .     S
O3166  C5278   1.344   1_545 S
H3167  C3168   1.069   .     S
C3168  H3336   1.050   .     S
C3168  C3227   1.581   .     S
H3171  C3616   1.095   .     S
O3173  C3275   1.458   .     S
O3173  C3240   1.379   .     S
H3174  C3266   1.098   .     S
H3175  C3326   1.101   .     S
C3176  H3199   1.175   .     S
C3176  C3231   1.533   .     S
C3176  H3202   1.087   .     S
C3176  C3205   1.541   .     S
C3177  H3212   1.125   .     S
C3177  H3279   1.132   .     S
C3177  C3205   1.587   .     S
C3177  H3287   1.170   .     S
C3178  C3296   1.534   .     S
C3178  C3337   1.509   .     S
C3178  C3208   1.495   .     S
C3178  C3258   1.540   .     S
C3179  C3239   1.421   .     S
C3179  C3267   1.426   .     S
C3179  C3273   1.402   .     S
C3180  C3231   1.513   .     S
C3180  C3285   1.419   .     S
C3180  C3236   1.398   .     S
C3181  H3251   1.116   .     S
C3181  H3324   1.096   .     S
C3181  H3294   1.104   .     S
C3181  C3345   1.541   .     S
H3182  C5431   1.091   1_545 S
H3183  C3322   1.127   .     S
H3184  C3280   1.149   .     S
H3185  C3280   1.068   .     S
H3186  C3258   1.165   .     S
C3187  H3332   1.088   .     S
C3187  C3217   1.570   .     S
C3187  H3306   1.151   .     S
C3187  H5359   1.079   1_545 S
C3188  H3318   1.116   .     S
C3188  C3330   1.378   .     S
C3188  C3211   1.422   .     S
H3189  C3230   1.215   .     S
H3190  C3266   1.054   .     S
C3191  C3304   1.399   .     S
C3191  C3338   1.370   .     S
C3191  H3327   1.231   .     S
C3192  C3235   1.417   .     S
C3192  C3236   1.372   .     S
C3192  H3286   1.082   .     S
H3193  C3196   1.074   .     S
C3194  C3917   1.393   .     S
C3194  O3301   1.356   .     S
C3194  C3271   1.413   .     S
C3195  C3333   1.454   .     S
C3195  C3273   1.384   .     S
C3195  O3487   1.398   .     S
C3196  H3295   1.102   .     S
C3196  H3252   1.179   .     S
C3196  C3313   1.522   .     S
H3197  C3285   1.113   .     S
H3198  C3263   1.080   .     S
C3200  N3300   1.148   .     S
C3200  C3303   1.392   .     S
H3201  C3223   1.095   .     S
C3203  O3314   1.383   .     S
C3203  C3223   1.425   .     S
C3203  C5411   1.414   1_545 S
C3204  O3237   1.416   .     S
C3204  C3233   1.379   .     S
C3204  C3257   1.419   .     S
C3205  C3230   1.565   .     S
C3205  C3236   1.598   .     S
C3206  C3244   1.391   .     S
C3206  C3218   1.394   .     S
C3206  C3231   1.461   .     S
C3207  C3215   1.357   .     S
C3207  C3941   1.426   .     S
C3207  C3275   1.386   .     S
C3208  C3288   1.392   .     S
C3208  C3243   1.391   .     S
H3209  C3262   1.090   .     S
H3210  C3224   1.079   .     S
C3211  O3298   1.420   .     S
C3211  C3319   1.393   .     S
H3213  C3248   1.082   .     S
H3214  C3248   1.120   .     S
C3215  N3325   1.142   .     S
O3216  C3247   1.369   .     S
C3217  C3266   1.503   .     S
C3217  C3315   1.503   .     S
C3217  C5297   1.483   1_545 S
C3218  H3283   1.161   .     S
C3218  C3240   1.415   .     S
H3219  C3230   1.093   .     S
H3220  C3328   1.065   .     S
C3221  C3313   1.512   .     S
C3221  C3281   1.396   .     S
O3222  C3253   1.434   .     S
O3222  C3225   1.408   .     S
C3223  C3296   1.400   .     S
C3224  H3278   1.076   .     S
C3224  C3228   1.563   .     S
C3224  H3274   1.134   .     S
C3225  C3240   1.412   .     S
C3225  C3229   1.387   .     S
N3226  C3297   1.184   .     S
C3227  C3337   1.563   .     S
C3227  C3288   1.527   .     S
C3228  C3289   1.530   .     S
C3228  C3244   1.515   .     S
C3228  C3248   1.535   .     S
C3229  H3249   1.086   .     S
C3229  C3244   1.399   .     S
C3230  H3329   1.095   .     S
C3231  C3248   1.519   .     S
C3233  C3241   1.428   .     S
C3233  C3269   1.363   .     S
H3234  C3243   1.105   .     S
C3235  C3320   1.387   .     S
C3235  O3305   1.365   .     S
O3237  C3245   1.355   .     S
C3238  C3243   1.398   .     S
C3238  C3245   1.398   .     S
C3238  O3260   1.420   .     S
C3239  O3298   1.416   .     S
C3239  C3276   1.378   .     S
C3241  N3302   1.148   .     S
C3242  C3319   1.404   .     S
C3242  C3335   1.350   .     S
C3242  H3270   1.155   .     S
C3245  C3263   1.405   .     S
H3246  C3289   1.106   .     S
C3247  C3312   1.378   .     S
C3247  C3304   1.435   .     S
C3250  O3314   1.434   .     S
C3250  C5358   1.405   1_545 S
C3253  C3275   1.430   .     S
C3253  C3303   1.388   .     S
N3254  C3255   1.167   .     S
C3255  C3256   1.377   .     S
C3256  C3259   1.422   .     S
C3256  C3257   1.412   .     S
C3257  O3260   1.399   .     S
C3258  H3264   1.081   .     S
C3258  C3292   1.551   .     S
C3259  O3265   1.397   .     S
C3259  C3269   1.433   .     S
H3261  C3266   1.101   .     S
C3262  C3271   1.411   .     S
C3262  C3277   1.392   .     S
C3263  C3288   1.363   .     S
O3265  C3271   1.412   .     S
C3267  N3268   1.161   .     S
C3269  O3301   1.428   .     S
H3272  C3289   1.137   .     S
C3273  O3299   1.423   .     S
C3276  O3317   1.438   .     S
C3276  C3333   1.391   .     S
C3277  C4044   1.514   .     S
C3277  C3946   1.437   .     S
C3280  C3308   1.509   .     S
C3280  H3316   1.098   .     S
C3281  H3346   1.118   .     S
C3281  C3282   1.386   .     S
C3282  O3341   1.384   .     S
H3284  C5316   1.055   1_545 S
C3285  C3320   1.380   .     S
C3289  H3293   1.071   .     S
H3290  C3321   1.076   .     S
C3292  C3326   1.572   .     S
C3292  C3323   1.530   .     S
C3292  C5316   1.521   1_545 S
C3296  C3323   1.406   .     S
O3299  C3311   1.421   .     S
C3303  C4011   1.384   .     S
O3305  C6009   1.428   .     S
H3307  C3312   1.096   .     S
C3308  C3909   1.544   .     S
C3308  C6078   1.504   .     S
C3308  C6067   1.525   .     S
H3310  C3337   1.212   .     S
C3311  C3321   1.395   .     S
C3311  C3507   1.390   .     S
C3312  C3343   1.399   .     S
C3313  C3322   1.517   .     S
C3315  H3331   1.139   .     S
C3315  C5298   1.517   1_545 S
C3315  H5418   1.146   1_545 S
O3317  C3319   1.378   .     S
C3320  O5953   1.360   .     S
C3321  C3451   1.352   .     S
C3322  H3966   1.138   .     S
C3323  C5415   1.391   1_545 S
C3326  H5375   1.098   1_545 S
C3326  H5432   1.146   1_545 S
C3328  H3340   1.102   .     S
C3328  H3339   1.146   .     S
C3328  C3379   1.538   .     S
C3330  C3345   1.500   .     S
C3330  C3335   1.382   .     S
C3333  C3506   1.417   .     S
C3338  C3343   1.400   .     S
C3338  C3883   1.532   .     S
H3342  C5958   1.084   .     S
C3343  C3944   1.478   .     S
H3344  C5316   1.104   1_545 S
H3347  C5477   1.121   1_545 S
C3348  C3497   1.360   .     S
C3348  C3384   1.398   .     S
C3348  O3477   1.432   .     S
H3349  C3441   1.051   .     S
C3350  H3391   1.124   .     S
C3350  C3371   1.514   .     S
C3350  H3364   1.080   .     S
C3350  C3500   1.501   .     S
C3351  H3470   1.077   .     S
C3351  H3450   1.099   .     S
C3351  H3440   1.107   .     S
C3351  C3456   1.488   .     S
H3352  C3401   1.120   .     S
H3353  C3491   1.154   .     S
H3354  C3432   1.098   .     S
H3355  C3473   1.140   .     S
C3356  C3436   1.418   .     S
C3356  C3379   1.519   .     S
C3356  C3431   1.402   .     S
H3357  C3423   1.072   .     S
C3358  N3362   1.190   .     S
C3358  C3374   1.413   .     S
N3359  C3461   1.141   .     S
H3360  C3449   1.043   .     S
C3361  C3416   1.402   .     S
C3361  C3433   1.368   .     S
C3361  H3503   1.072   .     S
H3363  C3413   1.067   .     S
O3365  C4206   1.389   .     S
O3365  C3445   1.423   .     S
N3366  C3506   1.149   .     S
O3367  C3384   1.417   .     S
O3367  C3448   1.415   .     S
H3368  C2992   1.139   1_556 S
C3369  N3437   1.133   .     S
C3369  C3381   1.420   .     S
C3370  O3452   1.370   .     S
C3370  C3403   1.408   .     S
C3370  C2870   1.389   1_556 S
C3371  C3496   1.574   .     S
C3371  C3401   1.503   .     S
C3371  C3475   1.523   .     S
C3372  O3380   1.409   .     S
C3372  C3377   1.423   .     S
C3372  C3374   1.354   .     S
C3373  C3432   1.366   .     S
C3373  C3517   1.596   .     S
C3373  C3433   1.390   .     S
C3374  C3386   1.403   .     S
N3375  C3425   1.160   .     S
H3376  C3483   1.141   .     S
C3377  C3381   1.435   .     S
C3377  O3382   1.355   .     S
H3378  C3408   1.096   .     S
C3379  C3427   1.472   .     S
C3379  C3510   1.510   .     S
O3380  C3385   1.384   .     S
C3381  C3479   1.350   .     S
O3382  C3388   1.381   .     S
C3383  C3445   1.372   .     S
C3383  C3490   1.403   .     S
C3383  C3425   1.392   .     S
C3384  C3398   1.377   .     S
C3385  C3388   1.424   .     S
C3385  C3408   1.389   .     S
C3386  O3389   1.385   .     S
C3386  C3479   1.429   .     S
C3387  O3438   1.361   .     S
C3387  C3497   1.361   .     S
C3387  C3409   1.427   .     S
C3388  C3406   1.424   .     S
O3389  C3403   1.386   .     S
C3390  N3412   1.144   .     S
C3390  C3428   1.438   .     S
H3392  C3396   1.036   .     S
C3393  H3501   1.142   .     S
C3393  H4108   1.106   .     S
C3393  C4044   1.537   .     S
C3393  C3456   1.552   .     S
H3394  C3486   1.068   .     S
C3395  C3488   1.389   .     S
C3395  C3451   1.364   .     S
C3395  C3456   1.513   .     S
C3396  C3444   1.549   .     S
C3396  C3517   1.506   .     S
O3397  C3514   1.427   .     S
O3397  C5454   1.403   1_545 S
C3398  C3409   1.390   .     S
C3398  C3430   1.367   .     S
C3399  H3422   1.105   .     S
C3399  C3431   1.378   .     S
C3399  C3448   1.395   .     S
H3400  C3404   1.141   .     S
C3401  H3405   1.116   .     S
C3401  H3495   1.118   .     S
H3402  C3449   1.096   .     S
C3403  C3478   1.420   .     S
C3404  H6148   1.108   .     S
C3404  H3522   1.071   .     S
C3404  C3439   1.551   .     S
C3406  C3489   1.388   .     S
C3406  H3443   1.119   .     S
C3407  C3482   1.567   .     S
C3407  C3483   1.376   .     S
C3407  C6184   1.404   .     S
C3408  C3496   1.378   .     S
C3409  O3476   1.349   .     S
H3410  C2893   1.123   1_556 S
C3411  N3429   1.116   .     S
C3411  C5491   1.441   1_545 S
C3413  C3514   1.427   .     S
C3413  C3484   1.373   .     S
H3414  C3480   1.147   .     S
O3415  C4183   1.390   .     S
O3415  C3471   1.420   .     S
C3416  O3476   1.411   .     S
C3416  C3485   1.371   .     S
H3417  C3473   1.116   .     S
C3418  C3526   1.407   .     S
C3418  C2830   1.348   1_556 S
C3418  H5599   1.137   1_545 S
H3419  C3436   1.147   .     S
O3420  H3511   0.947   .     S
O3420  C2990   1.380   1_556 S
H3421  C3423   1.157   .     S
C3423  H3442   1.108   .     S
C3423  C3502   1.523   .     S
C3424  H3516   1.131   .     S
C3424  H3520   1.107   .     S
C3424  H3454   1.101   .     S
C3424  C3444   1.515   .     S
H3426  C5593   1.095   1_545 S
C3427  H3508   1.082   .     S
C3427  H3460   1.106   .     S
C3427  H3504   1.136   .     S
C3428  C3471   1.383   .     S
C3428  C3498   1.414   .     S
C3430  N3524   1.170   .     S
C3431  C3482   1.532   .     S
C3432  C3485   1.378   .     S
C3433  C3444   1.523   .     S
F3434  C3490   1.366   .     S
H3435  C3449   1.124   .     S
C3436  C3465   1.408   .     S
O3438  C3485   1.396   .     S
C3439  C3526   1.539   .     S
C3439  C2893   1.523   1_556 S
C3439  C2809   1.584   1_556 S
C3441  H3499   1.059   .     S
C3441  H3509   1.069   .     S
C3441  C2834   1.584   1_556 S
C3444  C3491   1.558   .     S
C3445  C3471   1.411   .     S
H3446  C3480   1.072   .     S
H3447  C3475   1.095   .     S
C3448  C3465   1.433   .     S
C3451  C4044   1.595   .     S
O3452  C3479   1.383   .     S
H3455  C3475   1.095   .     S
C3456  C4146   1.544   .     S
H3457  C3488   1.118   .     S
O3458  C3472   1.386   .     S
O3458  C2965   1.460   1_556 S
H3459  C3512   1.110   .     S
C3461  C3497   1.403   .     S
H3462  C3512   1.001   .     S
H3463  C5477   1.059   1_545 S
H3464  C3480   1.098   .     S
C3465  O3477   1.368   .     S
H3466  C3493   1.121   .     S
F3467  C3498   1.407   .     S
H3468  C3475   1.130   .     S
H3469  C3525   1.082   .     S
C3472  C4210   1.411   .     S
C3472  C3493   1.390   .     S
C3473  H3481   1.089   .     S
C3473  C3502   1.530   .     S
H3474  C3486   1.058   .     S
C3478  H3505   1.130   .     S
C3478  C2938   1.403   1_556 S
C3480  C5610   1.517   1_545 S
C3482  C3510   1.535   .     S
C3482  C3512   1.525   .     S
C3483  C6133   1.409   .     S
C3484  C3502   1.542   .     S
C3484  C5534   1.381   1_545 S
C3486  C3502   1.556   .     S
C3486  C5596   1.555   1_545 S
O3487  C3507   1.468   .     S
C3488  C3507   1.393   .     S
C3489  C3500   1.540   .     S
C3489  C3496   1.372   .     S
C3490  C3498   1.419   .     S
C3491  H5592   1.113   1_545 S
C3492  C3500   1.509   .     S
C3492  C4060   1.385   .     S
C3492  C3493   1.366   .     S
H3494  C3002   1.074   1_556 S
C3500  C4062   1.570   .     S
C3510  H6168   1.064   .     S
C3510  H3513   1.046   .     S
C3512  C6159   1.532   .     S
C3514  C5503   1.411   1_545 S
C3515  C3525   1.370   .     S
C3515  C3517   1.517   .     S
H3518  C6141   1.114   .     S
H3519  C4068   1.087   .     S
H3521  C3910   1.138   .     S
H3523  C3002   1.159   1_556 S
C3526  C2818   1.419   1_556 S
C3527  H3541   1.116   .     S
C3527  H3691   1.156   .     S
C3527  H3692   1.126   .     S
C3527  C3709   1.506   .     S
H3528  C3621   1.108   .     S
O3529  C3532   1.412   .     S
O3529  C3651   1.383   .     S
C3530  C3679   1.390   .     S
C3530  C3643   1.395   .     S
C3530  C3793   1.534   .     S
H3531  C3554   1.084   .     S
C3532  C3613   1.437   .     S
C3532  C3649   1.391   .     S
O3533  C3714   1.429   .     S
O3533  C4063   1.385   1_554 S
C3534  C3536   1.379   .     S
C3534  N3662   1.178   .     S
C3535  C3538   1.418   .     S
C3535  C3693   1.409   .     S
C3535  H3609   1.106   .     S
C3537  H3584   1.129   .     S
C3537  C3626   1.523   .     S
C3537  H3677   1.110   .     S
C3537  C3638   1.499   .     S
C3538  O3676   1.350   .     S
C3538  C3656   1.449   .     S
C3539  O3566   1.367   .     S
C3539  C3646   1.407   .     S
C3539  C3558   1.443   .     S
O3540  C3667   1.413   .     S
O3540  C3655   1.371   .     S
C3542  C3681   1.393   .     S
C3542  C3697   1.373   .     S
C3542  H3612   1.129   .     S
H3543  C3587   1.064   .     S
N3544  C3560   1.128   .     S
C3545  C3610   1.381   .     S
C3545  C3635   1.373   .     S
C3545  C3644   1.393   .     S
C3546  C3567   1.538   .     S
C3546  C3589   1.381   .     S
C3546  C3664   1.396   .     S
H3547  C3554   1.133   .     S
H3548  C3577   1.066   .     S
C3549  C3594   1.412   .     S
C3549  C3634   1.430   .     S
C3549  C3674   1.398   .     S
N3550  C3605   1.161   .     S
C3551  C3630   1.391   .     S
C3551  C3693   1.404   .     S
C3551  C3700   1.598   .     S
O3552  C3671   1.368   .     S
O3552  C3649   1.383   .     S
O3553  C3615   1.368   .     S
O3553  C3657   1.370   .     S
C3554  H3568   1.088   .     S
C3554  C3638   1.572   .     S
H3555  C3625   1.115   .     S
C3556  O3637   1.391   .     S
C3556  C3618   1.403   .     S
C3556  C3675   1.429   .     S
H3557  C6299   1.128   .     S
C3558  C3643   1.403   .     S
C3558  O3648   1.377   .     S
C3559  C3649   1.350   .     S
C3559  C3590   1.390   .     S
C3559  C3685   1.395   .     S
C3560  C3613   1.424   .     S
C3561  C3607   1.510   .     S
C3561  C3616   1.531   .     S
C3561  C3679   1.473   .     S
C3561  C3708   1.508   .     S
H3562  C3630   1.106   .     S
C3563  C3673   1.383   .     S
C3563  C3626   1.524   .     S
C3563  C3666   1.398   .     S
H3565  C3673   1.095   .     S
O3566  C3650   1.377   .     S
C3567  C3587   1.585   .     S
C3567  C3621   1.537   .     S
C3567  C3665   1.556   .     S
C3569  O3648   1.410   .     S
C3569  C3642   1.376   .     S
C3569  C3650   1.411   .     S
H3570  C3606   1.118   .     S
C3571  C3669   1.537   .     S
C3571  C3577   1.405   .     S
N3572  C3610   1.166   .     S
O3573  C3656   1.374   .     S
O3573  C3658   1.395   .     S
C3574  C3707   1.415   .     S
C3574  O3652   1.387   .     S
C3574  C3604   1.428   .     S
C3575  C3681   1.427   .     S
C3575  O3696   1.374   .     S
C3575  C3750   1.389   .     S
O3576  C3590   1.423   .     S
O3576  C3675   1.426   .     S
H3578  C4190   1.111   1_554 S
N3579  C3585   1.177   .     S
H3580  C3665   1.109   .     S
H3581  C3601   1.125   .     S
H3582  C4212   1.110   1_554 S
H3583  C3606   1.052   .     S
C3585  C3659   1.408   .     S
C3586  C3625   1.418   .     S
C3586  C3667   1.422   .     S
C3586  O3672   1.398   .     S
C3587  H3627   1.073   .     S
C3587  H3598   1.130   .     S
H3588  C4185   1.124   1_554 S
C3589  C3651   1.360   .     S
C3589  H3660   1.155   .     S
C3590  C3632   1.418   .     S
H3591  C3592   1.120   .     S
C3592  H3684   1.067   .     S
C3592  C3669   1.564   .     S
C3592  H3622   1.074   .     S
H3593  C4381   1.174   .     S
C3594  N3600   1.143   .     S
O3595  C3674   1.366   .     S
C3596  C3655   1.397   .     S
C3596  C3633   1.335   .     S
C3596  C3640   1.399   .     S
C3597  C3664   1.353   .     S
C3597  C3671   1.360   .     S
H3599  C3686   1.049   .     S
C3601  C3669   1.507   .     S
C3601  H3699   1.107   .     S
C3601  H3619   1.097   .     S
O3602  C3706   1.379   .     S
O3602  C3681   1.336   .     S
H3603  C3621   1.085   .     S
C3604  O3636   1.364   .     S
C3604  C3678   1.377   .     S
C3605  C4223   1.427   .     S
C3606  H3663   1.112   .     S
C3606  C3638   1.513   .     S
C3607  H3710   1.064   .     S
C3607  H3854   1.146   .     S
H3608  C3665   1.110   .     S
H3611  C3690   1.117   .     S
C3613  C3632   1.411   .     S
N3614  C3640   1.164   .     S
C3615  C3688   1.374   .     S
C3615  C3617   1.406   .     S
C3616  C3793   1.533   .     S
C3617  C3654   1.385   .     S
C3617  C3650   1.387   .     S
C3618  C3715   1.383   .     S
C3618  H3624   1.095   .     S
C3620  H3631   1.081   .     S
C3620  H3694   1.103   .     S
C3620  H3695   1.083   .     S
C3620  C3700   1.556   .     S
C3625  C3666   1.380   .     S
C3626  C3713   1.523   .     S
C3626  C3690   1.505   .     S
C3628  O3670   1.392   .     S
C3628  C4063   1.414   1_554 S
C3628  C4064   1.416   1_554 S
H3629  C3678   1.099   .     S
C3630  C3656   1.434   .     S
C3632  O3637   1.371   .     S
C3633  O3676   1.371   .     S
C3633  C3658   1.378   .     S
C3634  C3635   1.415   .     S
C3634  O3636   1.366   .     S
C3635  O3652   1.410   .     S
C3638  C3666   1.581   .     S
H3639  C3712   1.113   .     S
N3641  C3654   1.195   .     S
C3642  C3688   1.409   .     S
C3642  C3764   1.394   .     S
C3643  H3864   1.107   .     S
C3644  C3674   1.383   .     S
H3645  C3646   1.073   .     S
C3646  C3679   1.358   .     S
H3647  C3708   1.127   .     S
C3651  C3671   1.396   .     S
H3653  C3665   1.037   .     S
C3655  C3668   1.420   .     S
C3657  C3712   1.425   .     S
C3657  C3806   1.393   .     S
C3658  C3659   1.425   .     S
C3659  C3668   1.378   .     S
H3661  C3690   1.116   .     S
C3667  C3673   1.407   .     S
C3668  O3672   1.391   .     S
C3669  C4211   1.510   1_554 S
O3670  C3682   1.411   .     S
C3675  C4195   1.384   1_554 S
C3678  C3705   1.362   .     S
H3680  C3686   1.096   .     S
C3682  C4288   1.389   .     S
C3682  C3714   1.411   .     S
C3683  H3698   1.093   .     S
C3683  C6996   1.544   .     S
C3683  H4422   1.087   .     S
C3683  H4205   1.084   1_554 S
C3686  H4418   1.102   .     S
C3686  C3709   1.555   .     S
H3687  C3703   1.174   .     S
C3688  O3843   1.398   .     S
C3689  C6255   1.359   .     S
C3689  N3704   1.154   .     S
C3690  C4197   1.508   1_554 S
C3693  C6362   1.511   .     S
O3696  C6228   1.412   .     S
C3697  C3850   1.385   .     S
C3697  C3793   1.516   .     S
C3700  C3703   1.572   .     S
C3700  C6253   1.465   .     S
H3701  C4288   1.090   .     S
C3703  H6221   1.124   .     S
C3703  H6354   1.059   .     S
C3705  C6362   1.509   .     S
C3705  C6353   1.421   .     S
C3706  C6255   1.374   .     S
C3706  C6228   1.390   .     S
C3707  C6353   1.433   .     S
C3707  H6218   1.110   .     S
C3708  H3711   1.128   .     S
C3709  C4250   1.563   .     S
C3709  C4381   1.524   .     S
C3712  C3760   1.347   .     S
C3713  C4169   1.396   1_554 S
C3713  C4190   1.418   1_554 S
C3714  C4347   1.409   .     S
C3715  C4153   1.423   1_554 S
C3715  C4196   1.510   1_554 S
H3716  C4185   1.106   1_554 S
O3717  C3832   1.473   .     S
O3717  C3807   1.334   .     S
H3718  C3748   1.066   .     S
C3719  C3790   1.507   .     S
C3719  C3788   1.492   .     S
C3719  C3809   1.521   .     S
C3719  C3765   1.562   .     S
C3720  H3783   1.058   .     S
C3720  C3724   1.512   .     S
C3720  H3738   1.141   .     S
C3720  C3749   1.523   .     S
O3721  C3744   1.399   .     S
O3721  C3814   1.389   .     S
H3722  C3786   1.125   .     S
C3723  C4468   1.571   .     S
C3723  C3813   1.501   .     S
C3723  C3774   1.495   .     S
C3723  C3790   1.516   .     S
C3724  C3838   1.543   .     S
C3724  C3852   1.466   .     S
C3724  C3837   1.486   .     S
C3725  N3816   1.143   .     S
C3725  C3769   1.432   .     S
H3726  C3742   1.092   .     S
C3727  C3731   1.397   .     S
C3727  C6517   1.380   .     S
C3727  H3836   1.132   .     S
C3728  C3786   1.511   .     S
C3728  C3796   1.552   .     S
C3728  C3850   1.537   .     S
C3728  C3826   1.536   .     S
H3729  C3796   1.138   .     S
H3730  C3826   1.147   .     S
C3731  C3749   1.556   .     S
C3731  C3733   1.412   .     S
C3732  C3833   1.565   .     S
C3732  H3754   1.154   .     S
C3732  C3776   1.501   .     S
C3733  C3737   1.474   .     S
C3733  C3804   1.403   .     S
O3734  C3817   1.343   .     S
O3734  C3781   1.406   .     S
H3735  C3829   1.112   .     S
H3736  C3804   1.090   .     S
C3737  C3849   1.541   .     S
C3737  C3863   1.476   .     S
H3739  C3748   1.092   .     S
H3740  C3765   1.069   .     S
O3741  C3773   1.419   .     S
O3741  C3778   1.323   .     S
C3742  H4592   1.114   .     S
C3742  C3833   1.585   .     S
C3742  C4573   1.534   .     S
C3743  C3755   1.364   .     S
C3743  C3845   1.416   .     S
C3743  O3857   1.427   .     S
C3744  C3773   1.434   .     S
C3744  C3746   1.442   .     S
C3745  C4464   1.423   .     S
C3745  O3747   1.415   .     S
C3745  C3801   1.367   .     S
C3746  C3832   1.402   .     S
C3746  C3819   1.370   .     S
O3747  H3785   0.972   .     S
C3748  H3800   1.086   .     S
C3749  C3849   1.548   .     S
C3749  C3799   1.467   .     S
C3750  C3850   1.382   .     S
C3750  H3751   1.109   .     S
C3752  C4014   1.343   .     S
C3752  O3766   1.421   .     S
C3752  C3906   1.407   .     S
C3753  C3858   1.534   .     S
C3753  H3803   1.113   .     S
C3753  H3797   1.117   .     S
C3753  H3851   1.065   .     S
C3755  C3769   1.362   .     S
C3755  O3761   1.401   .     S
N3756  C3848   1.149   .     S
C3757  C3833   1.524   .     S
C3757  C3760   1.379   .     S
C3757  C3789   1.404   .     S
O3758  C3759   1.377   .     S
O3758  C3770   1.404   .     S
C3759  C3827   1.414   .     S
C3759  C3829   1.437   .     S
C3760  C3776   1.583   .     S
O3761  C3881   1.432   .     S
H3762  C3865   1.104   .     S
C3763  C3812   1.396   .     S
C3763  H3771   1.156   .     S
C3763  C3852   1.392   .     S
C3764  N3775   1.129   .     S
C3765  H4521   1.091   .     S
C3765  H4546   1.090   .     S
O3766  C3812   1.360   .     S
H3767  C3789   1.087   .     S
N3768  C3824   1.153   .     S
C3769  C3770   1.391   .     S
C3770  C3779   1.385   .     S
H3772  C3801   1.131   .     S
C3773  C3777   1.428   .     S
C3774  C3801   1.364   .     S
C3774  C4528   1.411   .     S
C3777  C3824   1.439   .     S
C3777  C3781   1.386   .     S
C3778  C3805   1.414   .     S
C3778  C3814   1.428   .     S
C3779  O3780   1.411   .     S
C3779  C3845   1.388   .     S
O3780  C3827   1.387   .     S
C3781  C3832   1.395   .     S
H3782  C3786   1.090   .     S
C3784  H3855   1.090   .     S
C3784  C3823   1.379   .     S
C3784  C3799   1.368   .     S
C3786  H3798   1.130   .     S
H3787  C3809   1.071   .     S
C3788  C3844   1.398   .     S
C3788  C3813   1.463   .     S
C3789  C3806   1.382   .     S
C3790  H3859   1.146   .     S
C3790  H4515   1.034   .     S
H3791  C3796   1.089   .     S
H3792  C3805   1.092   .     S
C3793  C3826   1.517   .     S
N3794  C3819   1.189   .     S
C3795  H3828   1.096   .     S
C3795  C3802   1.399   .     S
C3795  C3827   1.417   .     S
C3796  H3856   1.109   .     S
C3799  C3852   1.384   .     S
C3802  C4573   1.549   .     S
C3802  C3831   1.390   .     S
C3804  C6512   1.399   .     S
C3806  O3843   1.387   .     S
C3807  C3844   1.418   .     S
C3807  C3817   1.375   .     S
H3808  C3838   1.077   .     S
C3809  H3815   1.125   .     S
C3809  H3821   1.095   .     S
H3810  C3838   1.076   .     S
C3812  C3823   1.448   .     S
C3813  C3825   1.368   .     S
C3817  C3825   1.432   .     S
H3818  C3849   1.093   .     S
O3820  C4426   1.374   .     S
O3820  C4017   1.363   .     S
C3823  O3930   1.405   .     S
C3825  H3842   1.138   .     S
C3826  H3860   1.084   .     S
C3829  C3831   1.405   .     S
C3830  C3845   1.362   .     S
C3830  N3853   1.178   .     S
C3831  C3833   1.534   .     S
H3834  C3837   1.068   .     S
H3835  C3837   1.118   .     S
C3837  H3847   1.065   .     S
C3838  H3846   1.112   .     S
H3839  C3844   1.099   .     S
H3841  C3849   1.082   .     S
C3848  C4014   1.425   .     S
O3857  C3981   1.383   .     S
C3858  C4613   1.479   .     S
C3858  C6467   1.505   .     S
C3858  C4502   1.564   .     S
H3861  C6467   1.043   .     S
C3863  H4002   1.051   .     S
C3863  H3978   1.097   .     S
C3863  H3907   1.066   .     S
C3865  C4424   1.386   .     S
C3865  C4502   1.408   .     S
C3866  H3943   1.082   .     S
C3866  C3899   1.545   .     S
C3866  H4010   1.128   .     S
C3866  H3972   1.102   .     S
C3867  C3933   1.573   .     S
C3867  C4003   1.547   .     S
C3867  C3984   1.492   .     S
C3867  C3926   1.570   .     S
O3868  C3873   1.337   .     S
O3868  C4011   1.382   .     S
C3869  C3979   1.384   .     S
C3869  C3997   1.363   .     S
C3869  C3877   1.384   .     S
C3870  H3995   1.130   .     S
C3870  C3944   1.533   .     S
C3870  H3989   1.084   .     S
C3870  H4009   1.090   .     S
C3871  C6634   1.443   .     S
C3871  O3880   1.356   .     S
C3871  C4006   1.414   .     S
C3872  C4694   1.537   .     S
C3872  C3900   1.525   .     S
C3872  C3960   1.567   .     S
C3872  C3954   1.493   .     S
C3873  C3929   1.482   .     S
C3873  C3949   1.381   .     S
C3874  C3935   1.440   .     S
C3874  O3934   1.404   .     S
C3874  C3998   1.396   .     S
C3875  H3985   1.115   .     S
C3875  C3944   1.500   .     S
C3875  H4000   1.124   .     S
C3875  H3956   1.122   .     S
C3876  H3936   1.052   .     S
C3876  C3881   1.416   .     S
C3876  C3927   1.407   .     S
C3877  C6540   1.396   .     S
C3877  O3964   1.387   .     S
C3878  C3903   1.420   .     S
C3878  C3963   1.357   .     S
C3878  C3976   1.412   .     S
C3879  C3922   1.480   .     S
C3879  C3926   1.536   .     S
C3879  C3939   1.541   .     S
C3879  C3918   1.491   .     S
O3880  C3997   1.450   .     S
C3881  C3981   1.381   .     S
H3882  C3926   1.119   .     S
C3883  C3910   1.503   .     S
C3883  C4199   1.495   .     S
C3883  C3959   1.520   .     S
H3884  C3942   1.091   .     S
H3885  C4005   1.094   .     S
H3886  C3949   1.046   .     S
H3887  C3959   1.128   .     S
H3888  C3919   1.093   .     S
C3889  C3973   1.446   .     S
C3889  N3993   1.146   .     S
C3890  C4007   1.364   .     S
C3890  C3945   1.361   .     S
C3890  C3965   1.551   .     S
O3891  C3938   1.402   .     S
O3891  C4019   1.367   .     S
C3892  N3911   1.166   .     S
C3892  C3908   1.396   .     S
H3893  C3984   1.141   .     S
H3894  C3984   1.048   .     S
H3895  C3970   1.107   .     S
H3896  C3954   1.099   .     S
H3897  C3939   1.077   .     S
H3898  C3910   1.070   .     S
C3899  C3970   1.474   .     S
C3899  C3945   1.511   .     S
C3899  C3990   1.565   .     S
C3900  H4018   1.092   .     S
C3900  H4761   1.062   .     S
C3900  C3965   1.586   .     S
H3901  C3942   1.108   .     S
O3902  C3929   1.397   .     S
O3902  C3941   1.428   .     S
C3903  N3905   1.174   .     S
H3904  C3926   1.112   .     S
C3906  C3908   1.418   .     S
C3906  O3930   1.397   .     S
C3908  C3938   1.417   .     S
C3909  C3998   1.385   .     S
C3909  C3986   1.363   .     S
C3910  C4167   1.538   .     S
N3912  C3979   1.189   .     S
H3913  C4003   1.132   .     S
C3914  H3923   1.126   .     S
C3914  C4017   1.405   .     S
C3914  C3945   1.388   .     S
H3915  C3990   1.071   .     S
H3916  C3932   1.171   .     S
C3917  H3958   1.124   .     S
C3917  C3946   1.369   .     S
C3918  C3927   1.368   .     S
C3918  C3919   1.396   .     S
C3919  C3981   1.428   .     S
H3920  C3954   1.063   .     S
H3921  C4001   1.072   .     S
C3922  C3949   1.385   .     S
C3922  C3933   1.374   .     S
H3924  C3959   1.106   .     S
C3925  C3976   1.394   .     S
C3925  C3973   1.371   .     S
C3925  O3969   1.414   .     S
C3927  C3967   1.580   .     S
H3928  C4005   1.097   .     S
C3929  C4001   1.375   .     S
C3931  H3948   1.081   .     S
C3931  C3975   1.382   .     S
C3931  C3977   1.421   .     S
C3932  H3983   1.063   .     S
C3932  C3967   1.578   .     S
C3932  H3971   1.131   .     S
C3933  C4001   1.365   .     S
O3934  C3976   1.460   .     S
C3935  O3969   1.397   .     S
C3935  C4013   1.326   .     S
H3937  C4003   1.161   .     S
C3938  C3991   1.391   .     S
C3939  H3955   1.118   .     S
C3939  C3967   1.495   .     S
C3940  H3974   1.090   .     S
C3940  H3988   1.090   .     S
C3940  C3957   1.549   .     S
C3940  H4012   1.084   .     S
C3941  C4011   1.390   .     S
C3942  C3957   1.536   .     S
C3942  H4015   1.158   .     S
C3944  C3959   1.536   .     S
C3946  C3957   1.511   .     S
O3947  C3977   1.405   .     S
O3947  C3963   1.425   .     S
C3950  C3977   1.384   .     S
C3950  C3961   1.411   .     S
C3950  O3962   1.398   .     S
H3951  C4679   1.124   .     S
H3952  C3961   1.087   .     S
H3953  C3990   1.142   .     S
C3954  H4004   1.095   .     S
C3957  C4171   1.447   .     S
C3960  C3961   1.393   .     S
C3960  C3975   1.423   .     S
O3962  C3968   1.389   .     S
C3963  C3968   1.405   .     S
O3964  C4763   1.341   .     S
C3965  C3970   1.509   .     S
C3965  C3975   1.451   .     S
C3967  C4005   1.523   .     S
C3968  C3973   1.404   .     S
C3970  H3980   1.086   .     S
H3982  C3984   1.090   .     S
C3986  C6671   1.597   .     S
C3986  C4013   1.407   .     S
H3987  C4003   1.118   .     S
C3990  H3996   1.135   .     S
C3991  O4021   1.376   .     S
C3991  C4014   1.330   .     S
H3992  C4006   1.096   .     S
H3994  C4013   1.140   .     S
C3997  C6597   1.386   .     S
C3998  H4016   1.117   .     S
C3999  C4017   1.457   .     S
C3999  O4687   1.458   .     S
C3999  C4007   1.396   .     S
C4005  H4008   1.095   .     S
C4006  C4182   1.407   .     S
C4007  H4024   1.134   .     S
C4019  C4636   1.448   .     S
C4019  C4741   1.415   .     S
H4020  C6078   1.092   .     S
O4021  C4636   1.371   .     S
H4022  C4741   1.116   .     S
H4023  C4107   1.079   .     S
H4025  C4122   1.100   .     S
H4026  C4119   1.065   .     S
C4027  C4147   1.359   .     S
C4027  C4125   1.407   .     S
C4027  O4050   1.392   .     S
C4028  C4096   1.413   .     S
C4028  H4065   1.142   .     S
C4028  C4054   1.424   .     S
C4029  H4124   1.108   .     S
C4029  H4141   1.104   .     S
C4029  C4150   1.482   .     S
C4029  H4040   1.117   .     S
C4030  C4054   1.421   .     S
C4030  C4152   1.491   .     S
C4030  C4072   1.367   .     S
O4031  C4145   1.383   .     S
O4031  C4166   1.395   .     S
H4032  C4097   1.084   .     S
H4033  C4212   1.101   .     S
C4034  H4083   1.110   .     S
C4034  H4118   1.077   .     S
C4034  H4117   1.091   .     S
C4034  C4053   1.547   .     S
H4035  C4176   1.104   .     S
H4036  C4159   1.096   .     S
H4037  C4154   1.134   .     S
H4038  C4211   1.056   .     S
H4039  C4184   1.090   .     S
C4041  H4043   1.095   .     S
C4041  H4092   1.120   .     S
C4041  C4138   1.514   .     S
C4041  H4078   1.102   .     S
H4042  C4077   1.058   .     S
C4044  C4171   1.560   .     S
O4045  C4210   1.461   .     S
O4045  C2993   1.406   1_556 S
C4046  C4069   1.405   .     S
C4046  H4116   1.089   .     S
C4047  C4169   1.351   .     S
C4047  C4056   1.398   .     S
C4047  H4088   1.078   .     S
C4048  C4094   1.353   .     S
C4048  N4181   1.182   .     S
C4049  C4216   1.418   .     S
C4049  O4198   1.380   .     S
C4049  C6829   1.411   .     S
O4050  C4148   1.408   .     S
H4051  C4184   1.044   .     S
C4052  C4064   1.365   .     S
C4052  C4102   1.421   .     S
C4052  O4086   1.403   .     S
C4053  C4123   1.562   .     S
C4053  C4057   1.484   .     S
C4053  C4054   1.501   .     S
C4055  C4122   1.502   .     S
C4055  C4154   1.510   .     S
C4055  C4134   1.467   .     S
C4055  C4153   1.503   .     S
C4056  O4135   1.416   .     S
C4056  C4148   1.405   .     S
C4057  H4100   1.071   .     S
C4057  H4079   1.089   .     S
C4057  H4115   1.083   .     S
C4058  H4214   1.176   .     S
C4058  H4132   1.115   .     S
C4058  H4098   1.075   .     S
C4058  C4177   1.545   .     S
H4059  C4159   1.101   .     S
C4060  C4121   1.405   .     S
C4060  C4177   1.578   .     S
C4061  H4070   1.079   .     S
C4061  C4134   1.418   .     S
C4061  C4206   1.421   .     S
C4062  H4193   1.119   .     S
C4062  H4168   1.071   .     S
C4062  C4177   1.502   .     S
C4063  C4094   1.401   .     S
C4063  O3533   1.385   1_556 S
C4063  C3628   1.414   1_556 S
C4064  C4187   1.407   .     S
C4064  C3628   1.416   1_556 S
C4066  C4188   1.349   .     S
C4066  C4152   1.554   .     S
C4066  C4133   1.399   .     S
H4067  C4103   1.072   .     S
C4068  H4170   1.114   .     S
C4068  C4167   1.539   .     S
C4068  H4151   1.101   .     S
C4069  C4167   1.502   .     S
C4069  C4199   1.412   .     S
C4071  C4103   1.560   .     S
C4071  C4110   1.551   .     S
C4071  C4099   1.544   .     S
C4071  C4176   1.576   .     S
C4072  C4158   1.391   .     S
C4072  H4131   1.110   .     S
H4073  C4105   1.071   .     S
H4074  C4122   1.071   .     S
H4075  C4103   1.083   .     S
C4076  C4134   1.388   .     S
C4076  C4150   1.546   .     S
C4076  C4137   1.368   .     S
C4077  C4152   1.542   .     S
C4077  C4138   1.551   .     S
C4077  H4091   1.070   .     S
H4080  C4107   1.118   .     S
C4081  C4101   1.412   .     S
C4081  C4145   1.397   .     S
C4081  O4095   1.373   .     S
H4082  C4097   1.036   .     S
H4084  C4110   1.110   .     S
C4085  C4104   1.380   .     S
C4085  H4165   1.089   .     S
C4085  C4099   1.360   .     S
O4086  C4096   1.451   .     S
N4087  C4127   1.152   .     S
H4089  C4105   1.114   .     S
N4090  C4139   1.163   .     S
H4093  C4171   1.090   .     S
C4094  C4102   1.362   .     S
O4095  C4142   1.383   .     S
C4096  C4158   1.434   .     S
C4097  H4140   1.141   .     S
C4099  C4160   1.396   .     S
C4101  C4125   1.431   .     S
C4101  C4127   1.417   .     S
C4102  O4109   1.422   .     S
C4103  H4164   1.113   .     S
C4104  C4194   1.432   .     S
C4104  O4198   1.399   .     S
C4105  C4150   1.537   .     S
C4105  H4136   1.128   .     S
H4106  C4171   1.056   .     S
C4107  H4203   1.110   .     S
C4107  C4138   1.582   .     S
O4109  C4158   1.396   .     S
C4110  C4163   1.598   .     S
C4110  H4111   1.090   .     S
H4112  C4120   1.118   .     S
H4113  C4137   1.089   .     S
H4114  C4146   1.076   .     S
C4119  C4160   1.406   .     S
C4119  C4194   1.391   .     S
C4120  C4197   1.544   .     S
C4120  H4191   1.112   .     S
C4120  H4173   1.147   .     S
C4121  H4126   1.095   .     S
C4121  C4210   1.359   .     S
C4122  C4196   1.489   .     S
C4123  C4152   1.534   .     S
C4123  H4143   1.080   .     S
C4123  H4130   1.129   .     S
C4125  O4135   1.420   .     S
C4129  C4886   1.410   .     S
C4129  H4179   1.125   .     S
C4129  C4142   1.357   .     S
C4133  H4175   1.139   .     S
C4133  C4856   1.390   .     S
C4137  C4183   1.378   .     S
C4138  C4188   1.498   .     S
C4139  C4147   1.349   .     S
C4142  C4166   1.460   .     S
H4144  C4146   1.144   .     S
C4145  C4147   1.384   .     S
C4146  H4204   1.111   .     S
C4148  C4190   1.360   .     S
H4149  C4185   1.136   .     S
C4150  C4154   1.539   .     S
C4153  C4195   1.380   .     S
C4153  C3715   1.423   1_556 S
C4154  H4155   1.076   .     S
H4156  C4201   1.088   .     S
H4157  C4176   1.084   .     S
C4159  H4161   1.095   .     S
C4159  C4177   1.514   .     S
C4160  C4163   1.558   .     S
C4163  C6732   1.511   .     S
C4163  C4182   1.519   .     S
C4166  C4804   1.336   .     S
C4167  C4201   1.524   .     S
C4169  C4197   1.501   .     S
C4169  C3713   1.396   1_556 S
C4172  H4186   1.100   .     S
C4172  H1578   1.091   1_556 S
C4172  C780    1.547   1_556 S
H4174  C4195   1.064   .     S
C4176  H4178   1.139   .     S
O4180  C4194   1.368   .     S
O4180  C4216   1.361   .     S
C4182  C6761   1.398   .     S
C4183  C4206   1.416   .     S
C4184  C4196   1.541   .     S
C4184  H4207   1.103   .     S
C4185  C4197   1.513   .     S
C4185  H3588   1.124   1_556 S
C4185  H3716   1.106   1_556 S
C4187  N4208   1.157   .     S
C4188  C4866   1.419   .     S
C4190  H3578   1.111   1_556 S
C4190  C3713   1.418   1_556 S
H4192  C4215   1.083   .     S
C4195  C3675   1.384   1_556 S
C4196  C4212   1.575   .     S
C4196  C3715   1.510   1_556 S
C4197  C3690   1.508   1_556 S
H4200  C4771   1.041   .     S
C4201  H4202   1.200   .     S
C4201  H4209   1.106   .     S
H4205  C3683   1.084   1_556 S
C4211  H4213   1.068   .     S
C4211  C780    1.572   1_556 S
C4211  C3669   1.510   1_556 S
C4212  H4217   1.080   .     S
C4212  H3582   1.110   1_556 S
C4215  H4884   1.072   .     S
C4216  C6731   1.397   .     S
N4218  C6718   1.145   .     S
C4219  N4232   1.161   .     S
C4219  C4281   1.379   .     S
C4220  C4398   1.537   .     S
C4220  C4240   1.525   .     S
C4220  C4303   1.520   .     S
C4220  C4227   1.548   .     S
C4221  O4263   1.409   .     S
C4221  C4334   1.401   .     S
C4221  C4287   1.429   .     S
C4222  C4332   1.531   .     S
C4222  C4344   1.375   .     S
C4222  C4288   1.388   .     S
C4223  C4334   1.350   .     S
C4223  C4529   1.422   .     S
H4224  C4260   1.121   .     S
C4225  C4282   1.402   .     S
C4225  C4368   1.406   .     S
C4225  C4363   1.346   .     S
C4226  H4306   1.084   .     S
C4226  C4332   1.614   .     S
C4226  H4277   1.085   .     S
C4226  H4262   1.107   .     S
C4227  H4364   1.096   .     S
C4227  H4295   1.073   .     S
C4227  C4902   1.509   .     S
H4228  C4339   1.110   .     S
O4229  C4334   1.426   .     S
O4229  C4329   1.394   .     S
C4230  C4294   1.534   .     S
C4230  C4251   1.387   .     S
C4230  C4242   1.382   .     S
C4231  C4381   1.516   .     S
C4231  C4293   1.534   .     S
C4231  C4246   1.510   .     S
C4231  C4375   1.537   .     S
H4233  C4236   1.095   .     S
H4234  C4402   1.131   .     S
C4235  C4372   1.347   .     S
C4235  C4391   1.436   .     S
C4235  C4410   1.436   .     S
C4236  C4242   1.376   .     S
C4236  C4307   1.405   .     S
H4237  C4343   1.120   .     S
C4238  O4395   1.385   .     S
C4238  C4314   1.367   .     S
C4238  C4405   1.360   .     S
H4239  C4327   1.103   .     S
C4240  C4264   1.385   .     S
C4240  C4360   1.404   .     S
H4241  C4375   1.066   .     S
C4242  C4325   1.511   .     S
C4243  C4349   1.406   .     S
C4243  O4317   1.372   .     S
C4243  C4357   1.373   .     S
C4244  C4314   1.408   .     S
C4244  O4608   1.391   .     S
C4244  C4481   1.444   .     S
C4245  C4324   1.407   .     S
C4245  C4343   1.331   .     S
C4245  C4326   1.589   .     S
C4246  C4318   1.389   .     S
C4246  C4250   1.442   .     S
C4247  C4387   1.422   .     S
C4247  C4331   1.379   .     S
C4247  O4395   1.318   .     S
H4248  C4350   1.031   .     S
C4249  C4376   1.393   .     S
C4249  C4309   1.369   .     S
C4249  C4283   1.551   .     S
C4250  C4357   1.363   .     S
C4251  H4275   1.082   .     S
H4252  C4358   1.105   .     S
C4253  H4300   1.130   .     S
C4253  C4324   1.394   .     S
C4253  C4286   1.418   .     S
N4254  C4391   1.157   .     S
N4255  C4333   1.166   .     S
C4256  H4377   1.101   .     S
C4256  C4361   1.530   .     S
C4256  H4259   1.063   .     S
C4256  H4265   1.108   .     S
C4257  H4378   1.115   .     S
C4257  H4305   1.081   .     S
C4257  C4294   1.506   .     S
C4257  H4268   1.055   .     S
H4258  C4320   1.046   .     S
C4260  C4361   1.492   .     S
C4260  H4371   1.085   .     S
C4260  H4311   1.070   .     S
H4261  C4347   1.075   .     S
O4263  C4286   1.336   .     S
C4264  H4272   1.097   .     S
C4264  C4359   1.365   .     S
H4266  C4339   1.115   .     S
H4267  C4380   1.076   .     S
H4269  C4297   1.100   .     S
H4270  C4320   1.047   .     S
O4271  C4301   1.363   .     S
O4271  C4279   1.382   .     S
C4273  O4356   1.373   .     S
H4274  C4413   1.151   .     S
C4276  H4370   1.064   .     S
C4276  C4376   1.355   .     S
C4276  C4383   1.385   .     S
H4278  C4327   1.120   .     S
C4279  C4282   1.424   .     S
C4279  C4281   1.464   .     S
H4280  C4289   1.158   .     S
C4281  C4315   1.348   .     S
C4282  O4285   1.412   .     S
C4283  C4289   1.520   .     S
C4283  C4284   1.488   .     S
C4283  C4406   1.538   .     S
C4284  C4325   1.598   .     S
C4284  H4337   1.092   .     S
C4284  H4404   1.077   .     S
O4285  C4359   1.371   .     S
C4286  C4329   1.429   .     S
C4287  C4312   1.384   .     S
C4287  C4580   1.389   .     S
C4289  H4335   1.108   .     S
C4289  H4338   1.103   .     S
H4290  C4318   1.058   .     S
O4291  H4308   0.957   .     S
O4291  C4464   1.382   .     S
H4292  C4387   1.089   .     S
C4293  C4316   1.360   .     S
C4293  C4355   1.367   .     S
C4294  C4362   1.555   .     S
C4294  C4327   1.502   .     S
H4296  C4362   1.113   .     S
C4297  C4301   1.396   .     S
C4297  C4360   1.398   .     S
H4298  C4402   1.142   .     S
H4299  C4342   1.075   .     S
C4301  C4359   1.381   .     S
H4302  C4350   1.118   .     S
C4303  C4954   1.451   .     S
C4303  C4321   1.359   .     S
H4304  C4362   1.096   .     S
C4307  O5089   1.389   .     S
C4309  H4382   1.122   .     S
C4309  C4894   1.388   1_554 S
N4310  C4363   1.136   .     S
C4312  N4420   1.133   .     S
C4313  H4388   1.187   .     S
C4313  C4390   1.545   .     S
C4313  C4319   1.532   .     S
C4313  H4366   1.119   .     S
C4314  C4341   1.371   .     S
C4315  C4368   1.426   .     S
C4315  O4317   1.448   .     S
C4316  C4374   1.502   .     S
C4318  C4349   1.374   .     S
C4319  C4379   1.499   .     S
C4319  C4350   1.489   .     S
C4319  C4612   1.532   .     S
C4320  H4385   1.096   .     S
C4320  C4332   1.488   .     S
C4321  H4328   1.085   .     S
C4321  C4346   1.339   .     S
H4322  C4396   1.124   .     S
H4323  C4327   1.118   .     S
C4324  C4361   1.552   .     S
C4325  C4362   1.495   .     S
C4325  C4376   1.530   .     S
C4326  C4354   1.530   .     S
C4326  C4342   1.578   .     S
C4326  C4344   1.574   .     S
C4329  C4343   1.421   .     S
H4330  C4380   1.127   .     S
C4331  O4384   1.378   .     S
C4331  C4365   1.459   .     S
C4332  C4342   1.570   .     S
C4333  C4408   1.401   .     S
H4336  C4358   1.136   .     S
C4339  C4390   1.584   .     S
C4339  C4348   1.495   .     S
H4340  C4342   1.129   .     S
C4341  N4351   1.138   .     S
C4344  C4347   1.386   .     S
H4345  C4354   1.093   .     S
C4346  C4998   1.461   .     S
C4346  O4392   1.347   .     S
C4348  C4413   1.558   .     S
C4348  C4480   1.571   .     S
C4348  C4585   1.538   .     S
C4349  O4367   1.381   .     S
C4350  H4403   1.119   .     S
H4352  C5056   1.135   .     S
H4353  C4354   1.124   .     S
C4354  C4361   1.524   .     S
C4355  H4386   1.128   .     S
O4356  C4415   1.432   .     S
C4357  H4393   1.101   .     S
C4358  H4369   1.092   .     S
C4358  C4374   1.507   .     S
C4360  C4397   1.493   .     S
C4365  C4379   1.432   .     S
C4365  H4400   1.165   .     S
O4367  C4368   1.412   .     S
C4372  C5075   1.410   .     S
C4372  O4890   1.396   1_554 S
H4373  C4375   1.146   .     S
C4374  C4375   1.545   .     S
C4374  C4396   1.540   .     S
C4379  C4389   1.318   .     S
C4380  C5087   1.487   .     S
C4380  H4407   1.069   .     S
C4381  H4416   1.100   .     S
C4383  O4883   1.385   1_554 S
C4383  C4894   1.435   1_554 S
O4384  C4405   1.444   .     S
C4387  C4389   1.397   .     S
C4389  C4390   1.563   .     S
C4390  C4583   1.595   .     S
O4392  C4410   1.336   .     S
H4394  C4396   1.057   .     S
C4396  H4412   1.110   .     S
C4397  C6846   1.542   .     S
C4397  C4398   1.538   .     S
C4397  C4402   1.538   .     S
C4398  H4414   1.074   .     S
C4398  H4421   1.083   .     S
C4399  C4405   1.412   .     S
C4399  C4469   1.393   .     S
C4399  C4481   1.356   .     S
H4401  C4480   1.123   .     S
C4402  H7023   1.084   .     S
C4406  H5036   1.061   .     S
C4406  H4960   1.064   .     S
C4406  H4953   1.121   .     S
C4408  C4415   1.374   .     S
C4408  C5018   1.417   .     S
H4409  C4417   1.092   .     S
C4410  C5079   1.418   .     S
O4411  C5018   1.364   .     S
O4411  C5015   1.371   .     S
C4415  C4899   1.416   .     S
C4417  C4950   1.377   .     S
C4417  C5015   1.350   .     S
H4419  C6846   1.079   .     S
C4423  H4457   1.177   .     S
C4423  C4455   1.558   .     S
C4423  H4486   1.092   .     S
C4423  H4579   1.049   .     S
C4424  C4484   1.411   .     S
C4424  O4606   1.379   .     S
O4425  C4501   1.425   .     S
O4425  C4554   1.412   .     S
C4426  C4574   1.397   .     S
C4426  C4433   1.435   .     S
C4427  C4465   1.389   .     S
C4427  H4472   1.072   .     S
C4427  C4566   1.439   .     S
C4428  C4449   1.385   .     S
C4428  N4591   1.148   .     S
H4429  C4482   1.128   .     S
H4430  C4513   1.094   .     S
C4431  N4444   1.125   .     S
C4431  C4557   1.367   .     S
H4432  C4480   1.075   .     S
C4433  C4475   1.406   .     S
C4433  C4501   1.363   .     S
H4434  C4485   1.057   .     S
H4435  C4513   1.131   .     S
C4436  H4495   1.093   .     S
C4436  C4583   1.412   .     S
C4437  H4447   1.073   .     S
C4437  H4451   1.138   .     S
C4437  C4438   1.533   .     S
C4437  H4577   1.087   .     S
C4438  C4477   1.565   .     S
C4438  C4584   1.539   .     S
C4438  C4489   1.508   .     S
H4439  C4537   1.130   .     S
H4440  C4613   1.081   .     S
H4441  C4468   1.099   .     S
H4442  C4471   1.083   .     S
O4443  C4481   1.376   .     S
O4443  C4542   1.407   .     S
C4445  C4446   1.565   .     S
C4445  C4513   1.539   .     S
C4445  C4485   1.558   .     S
C4445  C4532   1.496   .     S
C4446  H4523   1.104   .     S
C4446  H4463   1.071   .     S
C4446  H4459   1.106   .     S
C4448  C4659   1.395   .     S
C4448  C4454   1.383   .     S
C4448  C4709   1.382   .     S
C4449  C4458   1.421   .     S
C4449  C4574   1.421   .     S
H4450  C4480   1.136   .     S
O4452  C4465   1.383   .     S
O4452  C4582   1.371   .     S
C4453  H4519   1.167   .     S
C4453  C4575   1.385   .     S
C4453  C4514   1.337   .     S
C4454  O4564   1.376   .     S
C4454  C4504   1.393   .     S
C4455  C4528   1.497   .     S
C4455  C4471   1.535   .     S
C4455  C4468   1.547   .     S
C4456  H4506   1.106   .     S
C4456  C4464   1.393   .     S
C4456  C4528   1.387   .     S
C4458  O4559   1.369   .     S
C4458  C4501   1.403   .     S
H4460  C4476   1.131   .     S
H4461  C4581   1.163   .     S
H4462  C4562   1.103   .     S
C4465  C4509   1.406   .     S
H4466  C4590   1.140   .     S
H4467  C4489   1.054   .     S
C4468  H4533   1.106   .     S
C4469  N4474   1.168   .     S
H4470  C4584   1.124   .     S
C4471  H4499   1.103   .     S
C4471  H4586   1.144   .     S
C4473  C4582   1.375   .     S
C4473  O4503   1.370   .     S
C4473  C4578   1.395   .     S
C4475  N4602   1.148   .     S
C4476  H4569   1.067   .     S
C4476  C4573   1.594   .     S
C4476  H4597   1.075   .     S
C4477  C7084   1.410   .     S
C4477  C7035   1.393   .     S
N4478  C4595   1.158   .     S
H4479  C4537   1.057   .     S
C4482  H4587   1.094   .     S
C4482  C5271   1.514   .     S
C4482  H4599   1.089   .     S
C4483  H4598   1.084   .     S
C4483  H4487   1.097   .     S
C4483  H4508   1.150   .     S
C4483  C4573   1.569   .     S
C4484  O4596   1.348   .     S
C4484  C4605   1.363   .     S
C4485  H4527   1.074   .     S
C4485  H4570   1.108   .     S
H4488  C4526   1.103   .     S
C4489  H4492   1.087   .     S
C4489  H4545   1.073   .     S
H4490  C4584   1.100   .     S
C4491  O4616   1.420   .     S
C4491  C4494   1.397   .     S
C4491  C4568   1.399   .     S
H4493  C4612   1.099   .     S
C4494  C4578   1.403   .     S
C4494  O4697   1.411   .     S
H4496  C4518   1.059   .     S
H4497  C5285   1.084   .     S
C4498  C4522   1.548   .     S
C4498  C4516   1.387   .     S
C4498  C4576   1.384   .     S
H4500  C7035   1.134   .     S
C4502  C4588   1.414   .     S
O4503  C4509   1.374   .     S
C4504  O4593   1.429   .     S
C4504  C4557   1.395   .     S
H4505  C4525   1.128   .     S
N4507  C4511   1.146   .     S
C4509  C4589   1.370   .     S
C4510  C4562   1.513   .     S
C4510  C4566   1.554   .     S
C4510  C4516   1.474   .     S
C4510  C7122   1.501   .     S
C4511  C4568   1.342   .     S
H4512  C4525   1.161   .     S
C4513  C4543   1.494   .     S
C4514  C4524   1.437   .     S
C4514  O4540   1.402   .     S
C4516  C4581   1.363   .     S
C4517  C4585   1.392   .     S
C4518  C4532   1.401   .     S
C4518  C4565   1.417   .     S
C4520  C4589   1.405   .     S
C4520  C7092   1.517   .     S
C4520  C4566   1.394   .     S
C4522  C5199   1.550   .     S
C4522  C4615   1.534   .     S
C4522  C4562   1.508   .     S
C4524  C5263   1.446   .     S
C4525  C5158   1.547   .     S
C4525  H5291   1.061   .     S
C4526  H4530   1.114   .     S
C4526  C7273   1.512   .     S
C4526  C4755   1.525   .     S
C4529  C4580   1.415   .     S
C4529  O4606   1.389   .     S
C4531  C4542   1.416   .     S
C4531  C4576   1.361   .     S
C4531  O4608   1.371   .     S
C4532  C4547   1.373   .     S
H4534  C4539   1.097   .     S
H4535  C4536   1.194   .     S
C4536  H4538   1.112   .     S
C4536  H4560   1.066   .     S
C4536  C4541   1.479   .     S
C4537  H4544   1.104   .     S
C4537  C4541   1.472   .     S
C4539  C4550   1.409   .     S
C4539  C4554   1.352   .     S
O4540  C4600   1.397   .     S
C4541  C4555   1.520   .     S
C4541  C4550   1.584   .     S
C4542  C4581   1.386   .     S
C4543  C4555   1.524   .     S
C4543  C4547   1.565   .     S
C4543  C4548   1.531   .     S
C4547  C4551   1.384   .     S
C4548  C4552   1.392   .     S
C4548  C4550   1.412   .     S
H4549  C4552   1.187   .     S
C4551  H4556   1.105   .     S
C4551  C4563   1.446   .     S
C4552  C4553   1.365   .     S
C4553  O4559   1.387   .     S
C4553  C4554   1.424   .     S
C4555  H4558   1.085   .     S
C4555  H4561   1.156   .     S
C4557  C4695   1.353   .     S
C4562  H4614   1.071   .     S
C4563  C4565   1.419   .     S
C4563  O4564   1.429   .     S
C4565  O4593   1.366   .     S
C4568  C4582   1.437   .     S
H4571  C4679   1.103   .     S
H4572  C4576   1.116   .     S
C4574  O4687   1.384   .     S
C4575  C5158   1.492   .     S
C4575  C5097   1.423   .     S
C4578  C4603   1.400   .     S
C4580  O4596   1.400   .     S
C4583  C4585   1.412   .     S
C4584  C4604   1.555   .     S
C4588  C4605   1.395   .     S
C4588  C4604   1.487   .     S
C4589  H7086   1.104   .     S
C4590  H5109   1.130   .     S
C4590  C5158   1.537   .     S
C4590  H5294   1.081   .     S
H4594  C4615   1.143   .     S
H4601  C4615   1.134   .     S
C4603  N4725   1.156   .     S
C4604  C4613   1.561   .     S
C4604  C7084   1.578   .     S
C4605  H4607   1.052   .     S
H4609  C4612   1.107   .     S
H4610  C4612   1.142   .     S
C4611  C5183   1.411   .     S
C4611  O7071   1.435   .     S
C4611  C7395   1.410   .     S
C4613  H7098   1.067   .     S
C4615  H5118   1.069   .     S
O4616  C4736   1.389   .     S
C4617  C4741   1.385   .     S
C4617  C4669   1.413   .     S
C4617  C4661   1.506   .     S
H4618  C4896   1.083   .     S
H4619  C4726   1.101   .     S
C4620  H4667   1.093   .     S
C4620  H4622   1.101   .     S
C4620  H4685   1.092   .     S
C4620  C4657   1.596   .     S
H4621  C4646   1.103   .     S
C4623  H4664   1.110   .     S
C4623  H4764   1.098   .     S
C4623  C4738   1.579   .     S
C4623  H4730   1.041   .     S
H4624  C4689   1.154   .     S
H4625  C4698   1.115   .     S
H4626  C4753   1.121   .     S
C4627  C4634   1.561   .     S
C4627  C4683   1.556   .     S
C4627  C4663   1.559   .     S
C4627  C4646   1.586   .     S
C4628  C4714   1.374   .     S
C4628  C4658   1.354   .     S
C4628  C4675   1.610   .     S
H4629  C4694   1.097   .     S
C4630  C4651   1.377   .     S
C4630  H4635   1.102   .     S
C4630  C4674   1.424   .     S
H4631  C4643   1.129   .     S
C4632  C7245   1.382   .     S
C4632  O7388   1.386   .     S
C4632  C4688   1.370   .     S
H4633  C4702   1.137   .     S
C4634  C4640   1.368   .     S
C4634  C4702   1.424   .     S
C4636  C4671   1.383   .     S
C4637  C5357   1.525   .     S
C4637  C4747   1.555   .     S
C4637  C4753   1.485   .     S
C4637  C4692   1.525   .     S
H4638  C4648   1.113   .     S
C4639  C4734   1.407   .     S
C4639  C4657   1.518   .     S
C4639  C4678   1.413   .     S
C4640  C4673   1.375   .     S
C4640  C4693   1.531   .     S
H4641  C4692   1.136   .     S
H4642  C4745   1.094   .     S
C4643  H4721   1.125   .     S
C4643  H4677   1.088   .     S
C4643  C4661   1.598   .     S
H4644  C4658   1.106   .     S
H4645  C4747   1.070   .     S
C4646  H4701   1.135   .     S
C4646  C4693   1.598   .     S
C4647  H4680   1.100   .     S
C4647  H4756   1.109   .     S
C4647  C4755   1.599   .     S
C4647  H4712   1.117   .     S
C4648  C4678   1.368   .     S
C4648  C5398   1.385   .     S
C4649  N4754   1.164   .     S
C4649  C4739   1.453   .     S
H4650  C4668   1.063   .     S
C4651  C4672   1.392   .     S
C4651  C4691   1.573   .     S
H4652  C4689   1.098   .     S
C4653  C4728   1.380   .     S
C4653  C4674   1.422   .     S
C4653  O4711   1.376   .     S
H4654  C4683   1.094   .     S
C4655  H4722   1.085   .     S
C4655  H4740   1.053   .     S
C4655  C4661   1.522   .     S
C4655  H4751   1.116   .     S
H4656  C4733   1.087   .     S
C4657  C4676   1.551   .     S
C4657  C4726   1.550   .     S
C4658  C4732   1.392   .     S
C4659  N4720   1.157   .     S
H4660  C4663   1.115   .     S
C4661  C4689   1.555   .     S
H4662  C4733   1.099   .     S
C4663  H4707   1.095   .     S
C4663  H4729   1.108   .     S
H4665  C4671   1.072   .     S
H4666  C4733   1.072   .     S
C4668  H4696   1.101   .     S
C4668  H4743   1.188   .     S
C4668  C4675   1.528   .     S
C4669  C4693   1.517   .     S
C4669  C4671   1.398   .     S
H4670  C4679   1.143   .     S
C4672  C4728   1.399   .     S
C4672  C4719   1.569   .     S
C4673  H4715   1.129   .     S
C4673  C4706   1.350   .     S
C4674  O4731   1.383   .     S
C4675  C4827   1.513   .     S
C4675  C4698   1.540   .     S
C4676  H4684   1.148   .     S
C4676  H4742   1.091   .     S
C4676  H4704   1.109   .     S
C4678  C4691   1.502   .     S
C4679  C4755   1.553   .     S
H4681  C4705   1.083   .     S
H4682  C4692   1.116   .     S
C4683  H4686   1.111   .     S
C4683  H4717   1.065   .     S
C4688  C4739   1.405   .     S
C4688  O4713   1.446   .     S
C4689  C4693   1.514   .     S
H4690  C4753   1.050   .     S
C4691  C4726   1.588   .     S
C4691  C4745   1.578   .     S
C4692  H4765   1.099   .     S
C4694  H4699   1.113   .     S
C4694  H4752   1.098   .     S
C4695  C4709   1.408   .     S
C4695  O4711   1.432   .     S
O4697  C4706   1.387   .     S
C4698  H4710   1.131   .     S
C4698  C4723   1.543   .     S
C4700  H4727   1.047   .     S
C4700  H4750   1.146   .     S
C4700  C4738   1.548   .     S
C4702  C4736   1.386   .     S
H4703  C4728   1.095   .     S
C4705  H4744   1.091   .     S
C4705  H4718   1.129   .     S
C4705  C4719   1.517   .     S
C4706  C4736   1.425   .     S
H4708  C4726   1.113   .     S
C4709  O4731   1.383   .     S
O4713  C4732   1.368   .     S
C4714  C4723   1.500   .     S
C4714  C7257   1.370   .     S
H4716  C4734   1.124   .     S
C4719  C4745   1.522   .     S
C4719  C4733   1.558   .     S
C4723  C7223   1.507   .     S
C4723  C7356   1.530   .     S
H4724  C4747   1.124   .     S
C4732  C4748   1.411   .     S
C4734  C4737   1.399   .     S
C4735  C4755   1.542   .     S
C4735  C7330   1.400   .     S
C4735  C4759   1.408   .     S
C4737  C5398   1.391   .     S
C4737  O5419   1.374   .     S
C4738  C4896   1.563   .     S
C4738  C4885   1.494   .     S
C4739  C5424   1.350   .     S
C4745  H4746   1.115   .     S
C4747  H4757   1.074   .     S
C4748  C7257   1.400   .     S
C4748  O7388   1.378   .     S
H4749  C7389   1.099   .     S
C4753  C5413   1.557   .     S
C4758  C7395   1.389   .     S
C4758  C5416   1.460   .     S
C4758  C7398   1.505   .     S
C4759  H4762   1.085   .     S
C4759  C4763   1.398   .     S
H4760  C7387   1.110   .     S
C4763  C6544   1.437   .     S
H4766  C4872   1.126   .     S
H4767  C4896   1.105   .     S
C4768  C7588   1.546   .     S
C4768  H4882   1.126   .     S
C4768  H7584   1.087   .     S
C4768  H4893   1.121   .     S
C4769  C4807   1.428   .     S
C4769  C4826   1.390   .     S
C4769  H4812   1.108   .     S
C4770  N4783   1.176   .     S
C4770  C4877   1.385   .     S
C4771  H4847   1.099   .     S
C4771  C4869   1.521   .     S
C4772  C4825   1.445   .     S
C4772  C4786   1.533   .     S
C4772  C4834   1.510   .     S
C4772  C4824   1.531   .     S
O4773  C4832   1.395   .     S
O4773  C4842   1.417   .     S
N4774  C4799   1.143   .     S
H4775  C4781   1.068   .     S
H4777  C4834   1.153   .     S
H4778  C4876   1.113   .     S
C4779  C4785   1.386   .     S
C4779  C4870   1.428   .     S
C4779  O4883   1.373   .     S
C4780  C4807   1.422   .     S
C4780  C4781   1.377   .     S
C4780  C4822   1.573   .     S
C4781  C4800   1.385   .     S
C4782  C4806   1.404   .     S
C4782  C4798   1.372   .     S
C4782  O4867   1.415   .     S
C4784  C4796   1.375   .     S
C4784  O4857   1.409   .     S
C4784  C4842   1.388   .     S
C4785  C4879   1.410   .     S
C4785  C4841   1.352   .     S
C4786  C4796   1.392   .     S
C4786  C4813   1.380   .     S
H4787  C5552   1.127   .     S
C4788  C4820   1.486   .     S
C4788  H4860   1.123   .     S
C4788  C4838   1.490   .     S
C4788  H4871   1.091   .     S
N4789  C5567   1.162   .     S
H4790  C4825   1.127   .     S
N4791  C4837   1.154   .     S
H4792  C4827   1.156   .     S
H4793  C4839   1.165   .     S
C4794  C4822   1.517   .     S
C4794  C4844   1.571   .     S
C4794  H4863   1.124   .     S
C4794  H4833   1.122   .     S
H4795  C4850   1.109   .     S
C4796  H4845   1.090   .     S
H4797  C4853   1.104   .     S
C4798  C7474   1.355   .     S
C4798  O4843   1.363   .     S
C4799  C4803   1.405   .     S
C4800  C4826   1.441   .     S
C4800  O4802   1.366   .     S
N4801  C4861   1.128   .     S
O4802  C4810   1.430   .     S
C4803  C4814   1.403   .     S
C4803  C4854   1.400   .     S
C4804  H4823   1.064   .     S
C4804  C4836   1.382   .     S
C4805  C4811   1.395   .     S
C4805  O4857   1.390   .     S
C4805  C4832   1.440   .     S
C4806  C4897   1.358   .     S
C4806  H4880   1.104   .     S
C4807  C4844   1.507   .     S
N4808  C4809   1.146   .     S
C4809  C4818   1.424   .     S
C4810  C4818   1.354   .     S
C4810  C4841   1.399   .     S
C4811  C4837   1.392   .     S
C4813  C4859   1.407   .     S
C4813  C4820   1.512   .     S
C4814  O4867   1.416   .     S
C4814  C4828   1.370   .     S
C4815  C4858   1.373   .     S
C4815  C4861   1.413   .     S
C4815  C4828   1.389   .     S
H4816  C4825   1.121   .     S
H4817  C4839   1.099   .     S
C4818  C4870   1.367   .     S
H4819  C4872   1.099   .     S
C4820  C5608   1.480   .     S
C4820  C4834   1.517   .     S
C4821  C4866   1.381   .     S
C4821  O4855   1.369   .     S
C4821  C4856   1.423   .     S
C4822  C4872   1.558   .     S
C4822  C4839   1.565   .     S
C4824  H4873   1.086   .     S
C4824  H4835   1.105   .     S
C4824  H4864   1.117   .     S
C4825  H4851   1.138   .     S
C4826  O4831   1.403   .     S
C4827  H4848   1.079   .     S
C4827  H4849   1.139   .     S
C4828  O4843   1.397   .     S
H4829  C5453   1.156   .     S
H4830  C4866   1.094   .     S
O4831  C4841   1.379   .     S
C4832  C4877   1.403   .     S
C4834  H4874   1.139   .     S
C4836  C4844   1.531   .     S
C4836  C4886   1.369   .     S
C4838  C4878   1.517   .     S
C4838  C5436   1.483   .     S
C4838  C4876   1.512   .     S
C4839  H4852   1.114   .     S
H4840  C4872   1.113   .     S
C4842  C4859   1.418   .     S
C4844  C4850   1.493   .     S
O4846  C4854   1.453   .     S
O4846  C4856   1.413   .     S
C4850  C4869   1.542   .     S
C4850  H4862   1.113   .     S
C4853  C4885   1.395   .     S
C4854  C4858   1.399   .     S
O4855  C4858   1.372   .     S
C4859  H4868   1.085   .     S
O4865  C4870   1.406   .     S
O4865  C4894   1.455   .     S
C4869  C4886   1.463   .     S
N4875  C4887   1.143   .     S
C4876  H5484   1.092   .     S
C4876  H4892   1.096   .     S
C4878  H4888   1.115   .     S
C4878  H5590   1.106   .     S
C4878  H4895   1.128   .     S
H4881  C7454   1.080   .     S
O4883  C4383   1.385   1_556 S
C4889  O4890   1.357   .     S
C4889  C5517   1.442   .     S
C4889  C7590   1.422   .     S
O4890  C4372   1.396   1_556 S
H4891  C4896   1.115   .     S
C4894  C4383   1.435   1_556 S
C4894  C4309   1.388   1_556 S
C4897  C7582   1.384   .     S
C4897  C7475   1.532   .     S
H4898  C4904   1.089   .     S
C4899  O4984   1.373   .     S
C4899  C5005   1.399   .     S
C4900  C5038   1.507   .     S
C4900  C5020   1.450   .     S
C4900  C4966   1.496   .     S
C4900  C4925   1.572   .     S
H4901  C5027   1.090   .     S
C4902  C4954   1.579   .     S
C4902  C4951   1.537   .     S
C4902  C5083   1.583   .     S
H4903  C4978   1.141   .     S
C4904  C5054   1.491   .     S
C4904  H4965   1.122   .     S
C4904  H5614   1.155   1_554 S
C4905  C4932   1.578   .     S
C4905  C4982   1.359   .     S
C4905  C4908   1.386   .     S
H4906  C4966   1.144   .     S
C4907  C4980   1.437   .     S
C4907  C4956   1.385   .     S
C4907  O5612   1.396   1_554 S
C4908  C5054   1.532   .     S
C4908  C5606   1.372   1_554 S
C4909  C4977   1.408   .     S
C4909  H5001   1.072   .     S
C4909  C4983   1.393   .     S
O4910  C4944   1.365   .     S
O4910  C5029   1.420   .     S
C4911  H4989   1.035   .     S
C4911  H5050   1.086   .     S
C4911  C5034   1.544   .     S
C4911  H4986   1.071   .     S
H4912  C5014   1.079   .     S
H4913  C5052   1.088   .     S
O4914  C5053   1.407   .     S
O4914  C4975   1.437   .     S
C4915  C4994   1.335   .     S
C4915  C4969   1.376   .     S
C4915  C2838   1.438   1_565 S
H4916  C4947   1.095   .     S
C4917  H5032   1.157   .     S
C4917  C5034   1.528   .     S
C4917  H4943   1.097   .     S
C4917  C5057   1.587   .     S
C4918  C5043   1.445   .     S
C4918  C4978   1.419   .     S
C4918  O4948   1.388   .     S
H4919  C4961   1.156   .     S
C4920  C4991   1.495   .     S
C4920  C4981   1.553   .     S
C4920  C5060   1.533   .     S
C4920  C5027   1.577   .     S
F4921  C4972   1.359   .     S
H4922  C5007   1.050   .     S
C4923  C4946   1.531   .     S
C4923  C4996   1.470   .     S
C4923  C4992   1.526   .     S
C4923  C4957   1.529   .     S
C4924  H4949   1.085   .     S
C4924  C4998   1.336   .     S
C4924  C4954   1.337   .     S
C4925  H4988   1.094   .     S
C4925  H5019   1.102   .     S
C4925  H5072   1.086   .     S
N4926  C4931   1.152   .     S
C4927  N4941   1.171   .     S
H4928  C4981   1.113   .     S
H4929  C5060   1.055   .     S
H4930  C5007   1.096   .     S
C4931  C4967   1.378   .     S
C4932  C4999   1.530   .     S
C4932  C4968   1.538   .     S
C4932  C4981   1.544   .     S
H4933  C5060   1.096   .     S
C4934  N4935   1.179   .     S
C4934  C4995   1.436   .     S
H4936  C4966   1.101   .     S
H4937  C4968   1.123   .     S
O4938  C4994   1.405   .     S
O4938  C5043   1.304   .     S
C4939  C5000   1.419   .     S
C4939  C4972   1.387   .     S
C4939  C5080   1.444   .     S
H4940  C5208   1.109   .     S
C4942  H5041   1.128   .     S
C4942  C4962   1.506   .     S
C4942  H5026   1.110   .     S
C4942  H5006   1.177   .     S
C4944  C5014   1.431   .     S
C4944  C5015   1.417   .     S
H4945  C5201   1.148   .     S
C4946  C4973   1.385   .     S
C4946  C4990   1.391   .     S
C4947  C4991   1.408   .     S
C4947  C5043   1.374   .     S
O4948  C5010   1.376   .     S
C4950  C5087   1.500   .     S
C4950  C4957   1.373   .     S
C4951  H5011   1.121   .     S
C4951  H4952   1.088   .     S
C4951  H5045   1.119   .     S
H4955  C4956   1.107   .     S
C4956  C4973   1.369   .     S
C4957  C5014   1.408   .     S
H4958  C5027   1.140   .     S
O4959  C4985   1.414   .     S
O4959  C5047   1.412   .     S
C4961  H4997   1.051   .     S
C4961  C4962   1.589   .     S
C4961  H5022   1.097   .     S
C4962  C4973   1.544   .     S
C4962  C4992   1.541   .     S
O4963  C4998   1.388   .     S
O4963  C5079   1.421   .     S
H4964  C4996   1.110   .     S
C4966  C5057   1.570   .     S
C4967  C5053   1.391   .     S
C4967  C2915   1.417   1_565 S
C4968  H5003   1.099   .     S
C4968  C5054   1.596   .     S
C4969  C5064   1.398   .     S
C4969  O2898   1.389   1_565 S
H4970  C5038   1.117   .     S
C4971  H5068   1.146   .     S
C4971  H5016   1.149   .     S
C4971  C5076   1.518   .     S
C4971  H5069   1.106   .     S
C4972  C5059   1.378   .     S
C4974  C4985   1.391   .     S
C4974  C5066   1.396   .     S
C4974  C7660   1.359   .     S
C4975  C5071   1.413   .     S
C4975  C5024   1.366   .     S
N4976  C5000   1.130   .     S
C4977  C5039   1.403   .     S
C4977  C5034   1.490   .     S
C4978  C4999   1.433   .     S
H4979  C5056   1.110   .     S
C4980  C4990   1.390   .     S
C4980  O5553   1.362   1_554 S
C4981  H5028   1.111   .     S
C4982  H5025   1.094   .     S
C4982  C5021   1.384   .     S
C4983  C5047   1.422   .     S
C4983  O5078   1.327   .     S
C4985  C5088   1.410   .     S
H4987  C5038   1.122   .     S
C4990  H4993   1.127   .     S
C4991  C4999   1.352   .     S
C4992  H5046   1.173   .     S
C4992  H5030   1.105   .     S
C4994  C5010   1.379   .     S
C4995  C5075   1.420   .     S
C4995  C5079   1.376   .     S
C4996  H5040   1.072   .     S
C4996  C5087   1.505   .     S
H5002  C5083   1.117   .     S
C5004  C5020   1.399   .     S
C5004  C5057   1.499   .     S
C5004  C5062   1.353   .     S
C5005  C5029   1.398   .     S
C5005  C5013   1.415   .     S
C5007  C5034   1.540   .     S
C5007  H5031   1.113   .     S
C5008  C5070   1.348   .     S
C5008  C5086   1.384   .     S
C5008  C5241   1.525   .     S
H5009  C5083   1.100   .     S
C5010  C5063   1.371   .     S
H5012  C5062   1.086   .     S
C5013  N5023   1.165   .     S
H5017  C5037   1.114   .     S
C5018  C5029   1.413   .     S
C5020  C2897   1.405   1_565 S
C5021  O5073   1.357   .     S
C5021  C5577   1.423   1_554 S
C5024  C5070   1.416   .     S
C5024  H5065   1.058   .     S
C5027  H5058   1.067   .     S
H5033  C5038   1.092   .     S
F5035  C5059   1.406   .     S
C5037  C5047   1.426   .     S
C5037  C5039   1.380   .     S
C5039  C5057   1.468   .     S
H5042  C5498   1.124   1_554 S
H5044  C7606   1.127   .     S
C5048  C5059   1.373   .     S
C5048  C5081   1.383   .     S
C5048  C5281   1.406   .     S
O5049  C5067   1.363   .     S
O5049  C5080   1.402   .     S
C5051  C5053   1.416   .     S
C5051  O5074   1.394   .     S
C5051  C2821   1.417   1_565 S
C5052  C5067   1.401   .     S
C5052  C5171   1.374   .     S
C5054  C5473   1.519   1_554 S
H5055  C5060   1.109   .     S
C5056  H5077   1.085   .     S
C5056  C5087   1.618   .     S
C5062  C2851   1.367   1_565 S
C5063  C5064   1.386   .     S
C5063  C5531   1.351   1_554 S
C5064  O5613   1.367   1_554 S
C5066  N5085   1.163   .     S
C5067  C5106   1.443   .     S
C5070  C5076   1.527   .     S
C5071  C5086   1.384   .     S
C5071  O5074   1.427   .     S
O5073  C2664   1.389   1_554 S
C5075  O5483   1.397   1_554 S
C5076  C5191   1.497   .     S
C5076  C5208   1.555   .     S
O5078  C5088   1.423   .     S
C5080  C5081   1.375   .     S
C5081  O5234   1.352   .     S
C5083  H7673   1.105   .     S
H5084  C7606   1.111   .     S
C5086  H5272   1.082   .     S
C5088  C7648   1.384   .     S
H5090  C5473   1.075   1_554 S
H5091  C5473   1.096   1_554 S
H5092  C5157   1.133   .     S
H5093  C5127   1.050   .     S
H5094  C5114   1.109   .     S
O5095  H5123   0.988   .     S
O5095  C5251   1.408   .     S
H5096  C5199   1.091   .     S
C5097  C5263   1.392   .     S
C5097  C5254   1.499   .     S
H5098  C5108   1.144   .     S
H5099  C5228   1.193   .     S
H5100  C5107   1.108   .     S
C5101  C5204   1.475   .     S
C5101  C5171   1.374   .     S
C5101  C5228   1.354   .     S
C5102  O5223   1.379   .     S
C5102  C5290   1.359   .     S
C5102  C5148   1.379   .     S
C5103  C5202   1.416   .     S
C5103  C5172   1.505   .     S
C5103  C5151   1.376   .     S
H5104  C5150   1.104   .     S
H5105  C5220   1.088   .     S
C5106  O5234   1.381   .     S
C5106  C5228   1.409   .     S
C5107  H5182   1.090   .     S
C5107  C5269   1.607   .     S
C5107  C5252   1.554   .     S
C5108  C5166   1.558   .     S
C5108  H5132   1.109   .     S
C5108  C5254   1.503   .     S
H5110  C5139   1.095   .     S
H5111  C5170   1.141   .     S
H5112  C5256   1.114   .     S
H5113  C5224   1.071   .     S
C5114  H5147   1.051   .     S
C5114  H5146   1.082   .     S
C5114  C5204   1.480   .     S
O5115  C5259   1.350   .     S
O5115  C5196   1.398   .     S
H5116  C5139   1.118   .     S
C5117  C5216   1.401   .     S
C5117  C5270   1.401   .     S
C5117  O5152   1.409   .     S
H5119  C5203   1.045   .     S
C5120  H5186   1.101   .     S
C5120  C5259   1.398   .     S
C5120  C7915   1.375   .     S
C5122  O5136   1.321   .     S
C5122  C5181   1.430   .     S
C5122  C5144   1.397   .     S
C5124  C5233   1.565   .     S
C5124  C5139   1.508   .     S
C5124  C5213   1.550   .     S
C5124  C5170   1.505   .     S
H5125  C5267   1.103   .     S
C5126  H5221   1.078   .     S
C5126  C5271   1.519   .     S
C5126  H5173   1.172   .     S
C5126  H5215   1.097   .     S
C5127  H5192   1.111   .     S
C5127  C5198   1.529   .     S
C5127  H5206   1.129   .     S
N5128  C5262   1.158   .     S
H5129  C5189   1.071   .     S
C5130  H5135   1.067   .     S
C5130  C5237   1.489   .     S
C5130  H5188   1.044   .     S
C5130  H5175   1.087   .     S
C5131  O5152   1.375   .     S
C5131  C5248   1.392   .     S
C5131  C5157   1.412   .     S
C5133  C5187   1.399   .     S
C5133  O3126   1.447   1_565 S
C5133  C3026   1.416   1_565 S
H5134  C5222   1.083   .     S
O5136  C5163   1.430   .     S
H5137  C5201   1.196   .     S
C5138  C5254   1.505   .     S
C5138  C5214   1.392   .     S
C5139  H3108   1.108   1_565 S
H5140  C5208   1.105   .     S
H5141  C5150   1.108   .     S
H5142  C5156   1.113   .     S
C5143  C5169   1.400   .     S
C5143  C5257   1.402   .     S
C5143  C5295   1.540   .     S
C5144  C5240   1.402   .     S
C5144  H5154   1.167   .     S
O5145  C5181   1.387   .     S
O5145  C5159   1.398   .     S
C5148  C5196   1.373   .     S
C5148  C5211   1.427   .     S
C5149  C5202   1.376   .     S
C5149  H5261   1.136   .     S
C5149  C5251   1.411   .     S
C5150  C5198   1.566   .     S
C5150  H5165   1.138   .     S
C5151  C5218   1.400   .     S
C5151  H5178   1.086   .     S
C5153  C5185   1.531   .     S
C5153  C5267   1.520   .     S
C5153  C5224   1.554   .     S
C5153  C5177   1.538   .     S
C5155  H5264   1.171   .     S
C5155  C5252   1.537   .     S
C5155  H5212   1.180   .     S
C5155  H5239   1.111   .     S
C5156  H5168   1.115   .     S
C5156  H5230   1.087   .     S
C5156  C5166   1.542   .     S
C5157  C5169   1.373   .     S
C5158  C5247   1.503   .     S
C5159  C5163   1.376   .     S
C5159  C3114   1.361   1_565 S
H5160  C5255   1.075   .     S
C5161  C5207   1.368   .     S
C5161  N5244   1.169   .     S
C5162  C5181   1.390   .     S
C5162  C5233   1.416   .     S
C5162  H3040   1.079   1_565 S
C5163  C5207   1.372   .     S
H5164  C5177   1.123   .     S
C5166  C5214   1.563   .     S
C5166  C5203   1.524   .     S
H5167  O5179   0.989   .     S
C5169  C5237   1.503   .     S
C5170  H5260   1.069   .     S
C5170  C5172   1.517   .     S
C5171  C5265   1.572   .     S
C5172  C5240   1.588   .     S
C5172  C5200   1.543   .     S
H5174  C5222   1.141   .     S
C5176  C5187   1.357   .     S
C5176  C5269   1.551   .     S
C5176  C5185   1.414   .     S
C5177  H5366   1.129   .     S
C5177  C5269   1.523   .     S
O5179  C5218   1.367   .     S
H5180  C5263   1.123   .     S
C5183  O5223   1.405   .     S
C5183  C5315   1.398   .     S
H5184  C5283   1.095   .     S
C5185  C5220   1.377   .     S
C5187  H5425   1.148   .     S
C5189  C5284   1.402   .     S
C5189  C5274   1.407   .     S
H5190  C5210   1.142   .     S
C5191  H5245   1.112   .     S
C5191  H5276   1.044   .     S
C5191  C5241   1.549   .     S
H5193  C5273   1.136   .     S
H5194  C5224   1.041   .     S
H5195  C5203   1.121   .     S
C5196  C7740   1.446   .     S
H5197  C5200   1.121   .     S
C5198  C5200   1.527   .     S
C5198  C5202   1.510   .     S
C5199  H5266   1.110   .     S
C5199  H5209   1.135   .     S
C5200  H5217   1.122   .     S
C5201  H5238   1.106   .     S
C5201  C5204   1.505   .     S
C5203  H5249   1.123   .     S
C5204  C5293   1.536   .     S
H5205  C5247   1.154   .     S
C5207  C5229   1.409   .     S
C5208  H5277   1.115   .     S
C5210  H5289   1.126   .     S
C5210  C5252   1.530   .     S
C5211  N5236   1.183   .     S
C5213  H5288   1.096   .     S
C5213  H5243   1.102   .     S
C5213  H3103   1.119   1_565 S
C5214  C5256   1.396   .     S
C5216  C5358   1.367   .     S
C5216  C5262   1.392   .     S
C5218  C5251   1.410   .     S
H5219  C5247   1.103   .     S
C5220  C3026   1.370   1_565 S
C5222  C5295   1.490   .     S
C5222  C5237   1.538   .     S
C5224  H5258   1.098   .     S
H5225  C5273   1.083   .     S
C5226  H5232   1.170   .     S
C5226  C5286   1.390   .     S
C5226  C3049   1.361   1_565 S
H5227  C5267   1.067   .     S
C5229  O5246   1.451   .     S
C5229  C5278   1.433   .     S
H5231  C5267   1.116   .     S
C5233  C5240   1.406   .     S
H5235  C7922   1.126   .     S
C5237  C5287   1.542   .     S
H5242  C5287   1.069   .     S
C5247  C5254   1.492   .     S
C5248  O5268   1.432   .     S
C5248  C5257   1.383   .     S
H5250  C5255   1.095   .     S
C5252  C5385   1.552   .     S
H5253  C5273   1.130   .     S
C5255  H5292   1.094   .     S
C5255  C3158   1.580   1_565 S
C5257  H5282   1.084   .     S
C5259  C7870   1.437   .     S
C5265  C5293   1.512   .     S
C5265  C5283   1.507   .     S
C5265  C2998   1.548   1_565 S
O5268  C5270   1.345   .     S
C5269  C5354   1.536   .     S
C5270  C3161   1.384   1_565 S
C5271  C5274   1.537   .     S
C5271  C5285   1.533   .     S
C5273  C7800   1.509   .     S
C5274  C5325   1.364   .     S
N5275  C5281   1.133   .     S
C5278  O3166   1.344   1_565 S
C5278  C3114   1.418   1_565 S
H5280  C5285   1.090   .     S
C5283  C3158   1.549   1_565 S
C5283  H3159   1.085   1_565 S
C5284  C5427   1.363   .     S
C5285  C5413   1.484   .     S
C5286  C5295   1.472   .     S
C5286  C7762   1.406   .     S
C5287  H7935   1.131   .     S
C5287  H7759   1.089   .     S
C5290  O7071   1.394   .     S
C5290  C7933   1.428   .     S
C5293  H3085   1.126   1_565 S
C5293  H3005   1.126   1_565 S
C5295  C7829   1.548   .     S
C5296  C5299   1.391   .     S
C5296  O5302   1.417   .     S
C5296  C5310   1.400   .     S
C5297  C5323   1.396   .     S
C5297  C5363   1.370   .     S
C5297  C3217   1.483   1_565 S
C5298  C5363   1.558   .     S
C5298  C5431   1.488   .     S
C5298  C5387   1.510   .     S
C5298  C3315   1.517   1_565 S
C5299  C5391   1.342   .     S
C5299  C5303   1.391   .     S
C5300  C5310   1.378   .     S
C5300  C5369   1.378   .     S
C5300  C5380   1.390   .     S
C5301  C5377   1.530   .     S
C5301  C5384   1.542   .     S
C5301  C5416   1.509   .     S
C5301  C5406   1.543   .     S
O5302  C5374   1.373   .     S
C5303  N5304   1.165   .     S
H5305  C5423   1.082   .     S
O5306  C5373   1.419   .     S
O5306  C5424   1.500   .     S
C5307  H5365   1.092   .     S
C5307  C5324   1.395   .     S
C5307  C5373   1.406   .     S
O5308  C5313   1.386   .     S
O5308  C5408   1.376   .     S
H5309  C5455   1.070   .     S
C5310  O5376   1.423   .     S
C5311  O5317   1.379   .     S
C5311  C5378   1.376   .     S
C5311  C5326   1.401   .     S
C5312  C8074   1.556   .     S
C5312  H8111   1.136   .     S
C5312  H5395   1.169   .     S
C5312  C5352   1.539   .     S
C5313  C5423   1.405   .     S
C5314  O5368   1.419   .     S
C5314  C5347   1.419   .     S
C5314  C5337   1.398   .     S
C5315  H5346   1.099   .     S
C5315  C5416   1.375   .     S
C5316  H5400   1.153   .     S
C5316  H3344   1.104   1_565 S
C5316  H3284   1.055   1_565 S
C5316  C3292   1.521   1_565 S
O5317  C5344   1.400   .     S
H5318  C5326   1.124   .     S
C5319  H5338   1.137   .     S
C5319  C5341   1.378   .     S
C5319  C5334   1.408   .     S
H5320  C5377   1.063   .     S
C5321  C5337   1.397   .     S
C5321  H5405   1.131   .     S
C5321  C5357   1.369   .     S
C5322  C5353   1.403   .     S
C5322  O5419   1.410   .     S
C5322  C5414   1.399   .     S
C5323  H5362   1.060   .     S
C5323  C5374   1.440   .     S
C5324  C7978   1.392   .     S
C5324  C5352   1.515   .     S
C5325  C5383   1.441   .     S
C5325  C5413   1.516   .     S
C5326  C5385   1.354   .     S
H5327  C5356   1.121   .     S
C5328  N5409   1.142   .     S
C5328  C5402   1.342   .     S
H5329  C5343   1.110   .     S
C5330  C5332   1.389   .     S
C5330  C5353   1.389   .     S
C5330  C5339   1.448   .     S
H5331  C5406   1.090   .     S
C5332  O5407   1.438   .     S
C5332  C5417   1.433   .     S
H5333  C5403   1.075   .     S
C5334  C5393   1.428   .     S
C5334  O5410   1.426   .     S
H5335  C5392   1.128   .     S
H5336  C5356   1.114   .     S
C5337  O5390   1.417   .     S
C5339  N5401   1.194   .     S
H5340  C5351   1.075   .     S
C5341  C5384   1.373   .     S
C5341  C5389   1.612   .     S
H5342  C5347   1.103   .     S
C5343  C5363   1.361   .     S
C5343  C5364   1.382   .     S
C5344  C5345   1.447   .     S
C5345  O5386   1.457   .     S
C5345  C5402   1.343   .     S
C5347  C5371   1.431   .     S
N5348  C5360   1.153   .     S
C5349  C5408   1.406   .     S
C5349  C5360   1.345   .     S
C5349  C5421   1.409   .     S
O5350  C5411   1.409   .     S
O5350  C5358   1.411   .     S
C5351  H5388   1.110   .     S
C5351  H5355   1.073   .     S
C5351  C5389   1.506   .     S
C5352  C5403   1.557   .     S
C5352  C5392   1.591   .     S
C5353  O5367   1.414   .     S
C5354  C5385   1.382   .     S
C5354  C5372   1.409   .     S
C5356  H5370   1.075   .     S
C5356  C5389   1.544   .     S
C5357  C5371   1.406   .     S
C5358  C3250   1.405   1_565 S
H5359  C3187   1.079   1_565 S
N5361  C5380   1.162   .     S
C5364  O5376   1.332   .     S
C5364  C5374   1.399   .     S
O5367  C5398   1.383   .     S
O5368  C5391   1.387   .     S
C5369  C5391   1.427   .     S
C5369  O5390   1.386   .     S
C5371  C5413   1.470   .     S
C5372  H5382   1.059   .     S
C5372  C5378   1.376   .     S
C5373  C5429   1.433   .     S
H5375  C3326   1.098   1_565 S
C5377  C5389   1.582   .     S
C5377  H5404   1.072   .     S
C5378  O5386   1.402   .     S
H5379  C5415   1.216   .     S
H5381  C5392   1.110   .     S
C5383  H5397   1.073   .     S
C5383  C5427   1.412   .     S
C5384  C5396   1.393   .     S
C5387  C5455   1.331   .     S
C5387  C5460   1.379   .     S
C5392  H5399   1.152   .     S
C5393  C5396   1.406   .     S
C5393  O7742   1.353   .     S
H5394  C5403   1.132   .     S
C5396  H8096   1.129   .     S
C5403  H7984   1.033   .     S
C5406  H7958   1.136   .     S
C5406  C7398   1.585   .     S
O5407  C5580   1.355   .     S
C5408  C5426   1.417   .     S
O5410  C7934   1.473   .     S
C5411  C5415   1.347   .     S
C5411  C3203   1.414   1_565 S
N5412  C8119   1.133   .     S
C5414  C5486   1.352   .     S
C5414  C5417   1.414   .     S
C5415  C3323   1.391   1_565 S
C5417  O5564   1.402   .     S
H5418  C3315   1.146   1_565 S
C5420  C7245   1.357   .     S
C5420  C5424   1.404   .     S
C5420  O7945   1.421   .     S
C5421  O5422   1.378   .     S
C5421  C5588   1.374   .     S
O5422  C5582   1.379   .     S
C5423  C406    1.357   1_565 S
C5426  C5545   1.378   .     S
H5428  C5431   1.168   .     S
C5429  C8071   1.399   .     S
C5429  O7945   1.393   .     S
H5430  C5524   1.108   .     S
C5431  C5610   1.511   .     S
C5431  H3182   1.091   1_565 S
H5432  C3326   1.146   1_565 S
H5433  C5546   1.125   .     S
C5434  C5479   1.519   .     S
C5434  C5570   1.532   .     S
C5434  C5579   1.524   .     S
C5434  C5490   1.509   .     S
H5435  C5441   1.090   .     S
C5436  C5608   1.407   .     S
C5436  C5502   1.352   .     S
C5437  C5489   1.424   .     S
C5437  O5532   1.419   .     S
C5437  C5554   1.403   .     S
C5438  C5442   1.422   .     S
C5438  C5519   1.404   .     S
C5438  C5468   1.361   .     S
H5440  C5456   1.127   .     S
C5441  C5460   1.379   .     S
C5441  C5496   1.391   .     S
C5442  N5470   1.131   .     S
H5443  C5458   1.081   .     S
O5444  C5521   1.376   .     S
O5444  C5503   1.363   .     S
O5445  C5555   1.370   .     S
O5445  C5497   1.353   .     S
C5446  C5557   1.391   .     S
C5446  C5535   1.435   .     S
C5446  O5476   1.363   .     S
H5447  O5507   0.947   .     S
C5448  C5578   1.493   .     S
C5448  C5557   1.392   .     S
C5448  C5462   1.409   .     S
C5449  C5589   1.381   .     S
C5449  C5551   1.420   .     S
C5449  C5555   1.339   .     S
H5450  C5593   1.111   .     S
C5451  C5541   1.508   .     S
C5451  C5578   1.539   .     S
C5452  C5525   1.376   .     S
C5452  C5587   1.500   .     S
C5452  C5505   1.420   .     S
C5453  C5587   1.493   .     S
C5453  H5481   1.067   .     S
C5453  H5600   1.128   .     S
C5454  C5521   1.398   .     S
C5454  C5491   1.372   .     S
C5454  O3397   1.403   1_565 S
C5455  C5527   1.392   .     S
C5456  H5500   1.094   .     S
C5456  C5587   1.560   .     S
C5456  C5541   1.559   .     S
C5457  C5574   1.377   .     S
C5457  C5464   1.383   .     S
C5457  C5569   1.621   .     S
C5458  C5474   1.378   .     S
C5458  C5571   1.361   .     S
C5459  H5604   1.072   .     S
C5459  C5569   1.526   .     S
C5459  C5596   1.584   .     S
C5459  H5475   1.088   .     S
C5460  C5610   1.573   .     S
O5461  C5468   1.379   .     S
O5461  C5496   1.412   .     S
C5462  C5541   1.514   .     S
C5462  C5472   1.381   .     S
O5463  C5543   1.409   .     S
O5463  C5611   1.383   .     S
C5464  H5471   1.152   .     S
C5464  C5482   1.450   .     S
H5465  C8138   1.080   .     S
C5466  C5584   1.411   .     S
C5466  C5576   1.384   .     S
C5466  C5489   1.394   .     S
C5467  C5497   1.405   .     S
C5467  H5560   1.106   .     S
C5467  C5608   1.346   .     S
C5468  C5551   1.415   .     S
H5469  C5559   1.103   .     S
C5472  C5535   1.395   .     S
C5472  H5499   1.122   .     S
C5473  H5597   1.104   .     S
C5473  H5090   1.075   1_556 S
C5473  C5054   1.519   1_556 S
C5473  H5091   1.096   1_556 S
C5474  O5564   1.377   .     S
C5474  C5580   1.424   .     S
O5476  C5489   1.377   .     S
C5477  C5610   1.569   .     S
C5477  H5492   1.084   .     S
C5477  H3347   1.121   1_565 S
C5477  H3463   1.059   1_565 S
C5479  H5572   1.055   .     S
C5479  C5495   1.532   .     S
C5479  H5538   1.099   .     S
H5480  C5566   1.136   .     S
C5482  C5518   1.391   .     S
C5482  O5529   1.384   .     S
O5483  C5517   1.447   .     S
O5483  C5075   1.397   1_556 S
N5485  C5576   1.176   .     S
C5486  N5544   1.106   .     S
H5487  C5549   1.122   .     S
C5488  H5536   1.066   .     S
C5488  C5595   1.412   .     S
C5488  C5517   1.395   .     S
C5490  C5524   1.399   .     S
C5490  C5571   1.408   .     S
C5491  C5501   1.411   .     S
C5491  C3411   1.441   1_565 S
H5493  C5562   1.064   .     S
H5494  C5502   1.120   .     S
C5495  C5562   1.508   .     S
C5495  C5565   1.531   .     S
C5495  C5571   1.509   .     S
C5496  C5527   1.427   .     S
C5497  C5509   1.408   .     S
C5498  H5594   1.054   .     S
C5498  C5569   1.498   .     S
C5498  H5526   1.116   .     S
C5498  H5042   1.124   1_556 S
C5501  O5510   1.359   .     S
C5501  C5543   1.404   .     S
C5502  C5509   1.394   .     S
C5503  C5559   1.407   .     S
C5503  C3514   1.411   1_565 S
O5504  C5577   1.415   .     S
C5505  C5548   1.381   .     S
C5505  C5541   1.511   .     S
C5506  C5543   1.387   .     S
C5506  C5521   1.351   .     S
C5506  C5515   1.339   .     S
O5507  C5518   1.437   .     S
H5508  C5528   1.100   .     S
C5509  O5539   1.407   .     S
O5510  C8128   1.386   .     S
H5511  C5565   1.136   .     S
H5512  C5579   1.077   .     S
H5513  C5528   1.129   .     S
H5514  C5606   1.082   .     S
C5515  N5550   1.186   .     S
H5516  C5557   1.081   .     S
C5518  C5566   1.375   .     S
C5519  O5539   1.404   .     S
C5519  C5555   1.435   .     S
H5520  C5565   1.081   .     S
C5522  C5582   1.386   .     S
C5522  O5575   1.401   .     S
C5522  C5548   1.392   .     S
O5523  C5551   1.431   .     S
O5523  C5527   1.363   .     S
C5524  C5580   1.406   .     S
C5525  C5582   1.378   .     S
C5525  H5615   1.088   .     S
C5528  H5583   1.133   .     S
C5528  C5542   1.518   .     S
O5529  H5563   0.973   .     S
H5530  C5546   1.175   .     S
C5531  N5540   1.148   .     S
C5531  C5063   1.351   1_556 S
O5532  C5535   1.434   .     S
H5533  C5579   1.104   .     S
C5534  C5596   1.538   .     S
C5534  C5559   1.347   .     S
C5534  C3484   1.381   1_565 S
C5537  C5570   1.361   .     S
C5537  C8160   1.378   .     S
C5537  C5542   1.532   .     S
C5542  C5579   1.536   .     S
C5542  C5546   1.465   .     S
C5545  C5603   1.422   .     S
C5545  C5588   1.407   .     S
C5546  H5616   1.091   .     S
H5547  C5561   1.089   .     S
C5548  H5558   1.134   .     S
C5549  H5585   1.060   .     S
C5549  H5607   1.076   .     S
C5549  C8270   1.543   .     S
C5552  C5587   1.580   .     S
O5553  C5581   1.428   .     S
O5553  C4980   1.362   1_556 S
C5554  C5567   1.388   .     S
C5554  C5581   1.366   .     S
H5556  C5562   1.119   .     S
C5561  C5598   1.380   .     S
C5561  C5570   1.407   .     S
C5562  H5573   1.151   .     S
C5565  H5568   1.094   .     S
C5566  C5574   1.403   .     S
C5569  C5593   1.549   .     S
C5574  C5596   1.508   .     S
O5575  C5588   1.402   .     S
C5577  C5606   1.384   .     S
C5577  C5021   1.423   1_556 S
C5581  C5584   1.430   .     S
C5584  O5612   1.414   .     S
C5589  N5602   1.169   .     S
H5591  C5593   1.094   .     S
H5592  C3491   1.113   1_565 S
C5593  H3426   1.095   1_565 S
C5595  C8270   1.540   .     S
C5595  C7596   1.414   .     S
C5596  C3486   1.555   1_565 S
C5598  C8142   1.361   .     S
C5598  O8176   1.355   .     S
H5599  C3418   1.137   1_565 S
C5603  N5605   1.208   .     S
C5606  C4908   1.372   1_556 S
H5609  C2809   1.053   1_566 S
C5610  C3480   1.517   1_565 S
C5611  C8251   1.384   .     S
C5611  C8128   1.404   .     S
O5612  C4907   1.396   1_556 S
O5613  C5064   1.367   1_556 S
O5613  C2830   1.417   1_566 S
H5614  C4904   1.155   1_556 S
H5617  C5649   1.134   .     S
C5618  C5713   1.369   .     S
C5618  O5693   1.368   .     S
C5618  C5673   1.393   .     S
C5619  H5710   1.075   .     S
C5619  C5745   1.553   .     S
C5619  H5758   1.115   .     S
C5620  C5704   1.473   .     S
C5620  C6199   1.517   .     S
C5620  C6239   1.532   .     S
C5620  C5741   1.529   .     S
C5621  C5740   1.389   .     S
C5621  C5648   1.482   .     S
C5621  C5746   1.379   .     S
C5622  C5755   1.530   .     S
C5622  C5727   1.508   .     S
C5622  C6261   1.477   .     S
C5622  C6360   1.541   .     S
N5623  C5672   1.159   .     S
H5624  C5694   1.155   .     S
H5625  C5709   1.022   .     S
H5626  C5658   1.114   .     S
C5627  C5674   1.435   .     S
C5627  O5680   1.376   .     S
C5627  C5633   1.432   .     S
H5628  C5755   1.119   .     S
C5629  C5718   1.506   .     S
C5629  C5741   1.514   .     S
C5629  C5738   1.531   .     S
C5629  C5714   1.542   .     S
N5630  C5667   1.168   .     S
H5631  C5646   1.092   .     S
C5632  C5746   1.387   .     S
C5632  C5739   1.406   .     S
C5632  H5723   1.115   .     S
C5633  C5655   1.416   .     S
C5633  O5683   1.377   .     S
C5634  C5648   1.561   .     S
C5634  H5635   1.069   .     S
C5634  C5745   1.521   .     S
C5634  H5670   1.133   .     S
O5637  C5696   1.417   .     S
O5637  C5703   1.339   .     S
N5638  C5722   1.159   .     S
C5639  C5725   1.407   .     S
C5639  C5732   1.403   .     S
C5639  O5643   1.389   .     S
C5640  C5747   1.420   .     S
C5640  N6110   1.154   1_554 S
C5641  C5739   1.431   .     S
C5641  C5740   1.392   .     S
C5642  O5720   1.428   .     S
C5642  C5686   1.366   .     S
C5642  C7705   1.470   1_545 S
O5643  C5675   1.334   .     S
H5644  C5698   1.103   .     S
C5645  C5674   1.398   .     S
C5645  C155    1.395   1_655 S
C5645  C100    1.520   1_655 S
C5646  C5707   1.342   .     S
C5646  C5656   1.378   .     S
C5647  C5703   1.405   .     S
C5647  O5715   1.411   .     S
C5647  C5660   1.404   .     S
C5648  C5717   1.544   .     S
C5648  C5707   1.587   .     S
C5649  C5689   1.406   .     S
C5649  C5725   1.387   .     S
H5650  C5740   1.128   .     S
N5651  C5705   1.114   .     S
C5652  H5749   1.156   .     S
C5652  C5743   1.367   .     S
C5652  C6084   1.400   1_554 S
H5653  C5690   1.089   .     S
H5654  C5717   1.142   .     S
C5655  H5691   1.147   .     S
C5655  C155    1.369   1_655 S
C5656  C6084   1.440   1_554 S
C5656  O6188   1.385   1_554 S
H5657  C5712   1.094   .     S
C5658  C5664   1.367   .     S
C5658  C5673   1.365   .     S
H5659  C5741   1.028   .     S
C5660  H5677   1.080   .     S
C5660  C5685   1.408   .     S
H5661  C5712   1.098   .     S
H5662  C5704   1.101   .     S
C5663  C5664   1.457   .     S
C5663  C5698   1.587   .     S
C5663  C5755   1.561   .     S
C5663  C5730   1.570   .     S
C5664  C5727   1.403   .     S
C5665  C5932   1.514   .     S
C5665  C5685   1.545   .     S
C5665  C5714   1.562   .     S
C5665  C5694   1.543   .     S
C5666  O5668   1.438   .     S
O5668  C5739   1.387   .     S
C5669  C5706   1.424   .     S
C5669  C5687   1.388   .     S
C5669  O5680   1.400   .     S
H5671  C5694   1.072   .     S
C5672  C5687   1.408   .     S
C5673  O5681   1.375   .     S
C5674  H5702   1.128   .     S
C5675  C5686   1.427   .     S
C5675  C5748   1.443   .     S
H5678  C5714   1.064   .     S
C5679  H5735   1.126   .     S
C5679  C5745   1.504   .     S
C5679  H6367   1.120   .     S
C5679  H6291   1.108   .     S
O5681  C5734   1.391   .     S
H5682  C5709   1.110   .     S
O5683  C5706   1.414   .     S
H5684  C5712   1.096   .     S
C5685  C5718   1.426   .     S
C5686  C5705   1.392   .     S
C5687  C5744   1.358   .     S
C5688  C5696   1.436   .     S
C5688  C5722   1.390   .     S
C5688  C5706   1.379   .     S
C5689  C5711   1.428   .     S
C5689  C6164   1.471   1_554 S
C5690  C5718   1.387   .     S
C5690  C5703   1.363   .     S
C5692  C5717   1.552   .     S
C5692  C5709   1.529   .     S
C5692  C5712   1.552   .     S
C5692  C5746   1.516   .     S
O5693  C5721   1.400   .     S
C5694  H5733   1.122   .     S
H5695  C5698   1.087   .     S
C5696  C5744   1.339   .     S
H5697  C5698   1.158   .     S
H5699  C5717   1.091   .     S
H5700  C5730   1.072   .     S
N5701  C5724   1.144   .     S
C5704  H5736   1.100   .     S
C5704  H6262   1.106   .     S
C5707  C5743   1.363   .     S
O5708  C5748   1.478   .     S
O5708  C5725   1.389   .     S
C5709  H5719   1.059   .     S
C5711  C5732   1.403   .     S
C5711  C6187   1.494   1_554 S
C5713  C5727   1.351   .     S
C5713  H5742   1.093   .     S
C5714  H5751   1.102   .     S
O5715  C5744   1.435   .     S
C5716  C5753   1.352   .     S
C5716  C5734   1.404   .     S
C5716  C5724   1.407   .     S
O5720  C7633   1.407   1_545 S
C5721  C5747   1.389   .     S
C5721  C5734   1.408   .     S
H5726  C6360   1.161   .     S
H5728  C6173   1.085   1_554 S
H5729  C5732   1.103   .     S
C5730  H5757   1.112   .     S
C5730  H6308   1.123   .     S
C5731  C5747   1.407   .     S
C5731  C5753   1.411   .     S
C5731  O22     1.411   1_655 S
H5737  C5741   1.083   .     S
C5738  C5750   1.385   .     S
C5738  C6239   1.359   .     S
C5743  C5745   1.593   .     S
C5748  C7663   1.389   1_545 S
C5750  C6213   1.413   .     S
C5750  H5897   1.061   .     S
N5752  C46     1.158   1_655 S
C5753  O19     1.459   1_655 S
H5754  C6199   1.025   .     S
C5755  H6212   1.081   .     S
H5756  C6173   1.064   1_554 S
H5759  C5932   1.071   .     S
C5761  C5866   1.495   .     S
C5761  C5892   1.476   .     S
C5761  C5855   1.530   .     S
C5761  C5920   1.559   .     S
H5762  C330    1.071   1_655 S
C5763  C5820   1.576   .     S
C5763  C518    1.515   1_655 S
C5763  C955    1.532   1_655 S
C5763  C330    1.560   1_655 S
H5764  C5787   1.080   .     S
C5765  H5926   1.142   .     S
C5765  H6405   1.127   .     S
C5765  C5813   1.517   .     S
C5765  H5900   1.130   .     S
O5766  C5842   1.389   .     S
O5766  C5805   1.420   .     S
C5767  H5877   1.105   .     S
C5767  H5865   1.121   .     S
C5767  H5771   1.095   .     S
C5767  C5888   1.562   .     S
O5768  C5832   1.405   .     S
O5768  C5858   1.442   .     S
C5769  N5875   1.134   .     S
C5769  C5902   1.385   .     S
H5770  C5850   1.091   .     S
O5772  C5818   1.405   .     S
O5772  C5810   1.391   .     S
C5773  C5849   1.456   .     S
C5773  O5830   1.363   .     S
C5773  C5828   1.375   .     S
H5774  C5911   1.049   .     S
H5775  C5791   1.073   .     S
C5776  C5858   1.405   .     S
C5776  C5902   1.385   .     S
C5776  O5807   1.427   .     S
C5777  O5780   1.389   .     S
C5777  C5856   1.406   .     S
C5777  C5902   1.411   .     S
H5778  C5866   1.105   .     S
H5779  C5792   1.088   .     S
O5780  C5904   1.382   .     S
H5781  C5783   1.101   .     S
H5782  C5892   1.088   .     S
C5783  H5795   1.118   .     S
C5783  C5811   1.545   .     S
C5783  H5993   1.113   .     S
C5784  C5853   1.381   .     S
C5784  C5813   1.523   .     S
C5784  C5898   1.403   .     S
C5785  H5806   1.131   .     S
C5785  C5813   1.506   .     S
C5785  H5833   1.112   .     S
C5785  C5831   1.585   .     S
H5786  C5787   1.169   .     S
C5787  H5840   1.138   .     S
C5787  C5883   1.531   .     S
H5788  C5817   1.070   .     S
C5789  C5796   1.377   .     S
C5789  C5859   1.403   .     S
C5789  C5843   1.455   .     S
C5790  C5909   1.379   .     S
C5790  O5819   1.409   .     S
C5790  C5810   1.357   .     S
C5791  H5837   1.109   .     S
C5791  H5803   1.079   .     S
C5791  C5813   1.514   .     S
C5792  C5888   1.512   .     S
C5792  H5839   1.150   .     S
C5792  H5889   1.117   .     S
C5793  C5805   1.386   .     S
C5793  C5835   1.342   .     S
C5793  C5825   1.409   .     S
O5794  C5825   1.404   .     S
O5794  C5849   1.381   .     S
C5796  C5873   1.380   .     S
C5796  O5848   1.389   .     S
C5797  H5862   1.039   .     S
C5797  C5832   1.405   .     S
C5797  C5903   1.409   .     S
C5798  C5844   1.385   .     S
C5798  C5810   1.427   .     S
C5798  H5845   1.075   .     S
H5799  C5908   1.069   .     S
N5800  C5843   1.141   .     S
H5801  C5892   1.092   .     S
C5802  C5879   1.367   .     S
C5802  C7907   1.516   1_545 S
C5802  C7931   1.390   1_545 S
O5804  C5905   1.370   .     S
C5805  C5886   1.373   .     S
O5807  C5826   1.355   .     S
C5808  C5816   1.391   .     S
C5808  C332    1.511   1_655 S
C5808  C347    1.426   1_655 S
H5809  C5850   1.129   .     S
C5811  C5958   1.503   .     S
C5811  C5911   1.549   .     S
N5812  C5835   1.179   .     S
C5814  C6292   1.409   .     S
C5814  C5933   1.396   .     S
H5815  C7790   1.130   1_545 S
C5816  C6381   1.547   .     S
C5816  C5817   1.337   .     S
C5817  C5842   1.398   .     S
C5818  C5859   1.385   .     S
C5818  C5864   1.412   .     S
O5819  C5859   1.398   .     S
C5820  H5913   1.071   .     S
C5820  H5950   1.081   .     S
C5820  H6518   1.111   .     S
H5821  C5912   1.113   .     S
H5822  C5823   1.132   .     S
C5823  C5826   1.413   .     S
C5823  C5824   1.393   .     S
C5824  C5903   1.359   .     S
C5824  C5831   1.533   .     S
C5825  C5851   1.363   .     S
C5826  C5832   1.431   .     S
C5827  H5927   1.098   .     S
C5827  C5904   1.363   .     S
C5827  C7679   1.392   1_545 S
C5828  H5860   1.077   .     S
C5828  C7931   1.394   1_545 S
H5829  C5879   1.131   .     S
O5830  C5851   1.422   .     S
C5831  C5834   1.530   .     S
C5831  C5898   1.486   .     S
C5834  H5931   1.113   .     S
C5834  C5888   1.501   .     S
C5834  H5921   1.098   .     S
O5836  C5924   1.380   .     S
O5836  C5928   1.378   .     S
C5838  C5883   1.518   .     S
C5838  C5878   1.374   .     S
C5838  C5908   1.329   .     S
C5841  C5851   1.394   .     S
C5841  C5901   1.346   .     S
C5841  C5886   1.365   .     S
C5842  C5869   1.394   .     S
C5844  C7905   1.424   1_545 S
C5844  C7907   1.528   1_545 S
C5846  C5937   1.395   .     S
C5846  O5891   1.338   .     S
C5846  C5863   1.431   .     S
H5847  C5918   1.120   .     S
O5848  C5863   1.373   .     S
C5849  C5879   1.373   .     S
C5850  H5872   1.069   .     S
C5850  C5883   1.520   .     S
H5852  C5871   1.116   .     S
C5853  H5868   1.164   .     S
C5853  C5881   1.363   .     S
C5854  C5933   1.412   .     S
C5854  O5915   1.384   .     S
C5856  O5893   1.403   .     S
C5856  C5880   1.360   .     S
H5857  C5892   1.109   .     S
C5858  C5880   1.395   .     S
C5861  C5906   1.407   .     S
C5861  H5922   1.085   .     S
C5861  C5898   1.370   .     S
C5863  C5912   1.391   .     S
C5864  C5873   1.422   .     S
C5864  C5882   1.367   .     S
C5866  H5917   1.107   .     S
C5866  H5867   1.110   .     S
C5869  O5899   1.413   .     S
C5869  C347    1.378   1_655 S
H5870  C5920   1.102   .     S
C5871  H5884   1.059   .     S
C5871  C6507   1.563   .     S
C5871  C5883   1.497   .     S
C5873  O5891   1.375   .     S
H5874  C5918   1.139   .     S
C5878  C5934   1.361   .     S
C5878  C6507   1.537   .     S
C5880  C5894   1.368   .     S
C5881  O5915   1.427   .     S
C5881  C5906   1.459   .     S
C5882  N5887   1.180   .     S
H5885  C7790   1.108   1_545 S
C5886  O5899   1.432   .     S
C5888  C5903   1.502   .     S
H5890  C5920   1.121   .     S
O5893  C5910   1.379   .     S
C5894  N5930   1.164   .     S
H5895  C5932   1.075   .     S
H5896  C5911   1.116   .     S
C5901  N205    1.130   1_655 S
C5904  C5910   1.400   .     S
C5905  C7937   1.390   1_545 S
C5906  O6519   1.378   .     S
C5907  C5920   1.518   .     S
C5907  C5911   1.481   .     S
C5908  C6039   1.423   .     S
C5909  C7905   1.425   1_545 S
C5909  H7923   1.087   1_545 S
C5910  C7618   1.375   1_545 S
C5912  C6066   1.398   .     S
H5914  C5918   1.104   .     S
C5916  C5928   1.413   .     S
C5916  C6018   1.408   .     S
C5916  C7921   1.437   1_545 S
C5918  C7880   1.537   1_545 S
H5919  C7937   1.065   1_545 S
H5923  C5932   1.136   .     S
C5924  C6049   1.418   .     S
C5924  C7914   1.377   1_545 S
H5925  C6423   1.195   .     S
C5928  C5985   1.406   .     S
C5929  N6077   1.126   .     S
C5929  C6434   1.370   .     S
C5933  O6519   1.387   .     S
C5934  H6560   1.118   .     S
C5934  C5980   1.391   .     S
H5935  C6075   1.115   .     S
C5936  O5953   1.421   .     S
C5936  C5991   1.367   .     S
C5936  C6009   1.376   .     S
C5937  H5999   1.102   .     S
C5937  C5992   1.419   .     S
C5938  C5952   1.389   .     S
C5938  C5981   1.385   .     S
C5938  H5957   1.105   .     S
C5939  C5995   1.439   .     S
C5939  H5976   1.074   .     S
C5939  C6032   1.340   .     S
H5940  C6041   1.132   .     S
C5941  C6041   1.528   .     S
C5941  C6023   1.488   .     S
C5941  C5975   1.584   .     S
C5941  C5964   1.510   .     S
H5942  C6016   1.091   .     S
H5943  C5975   1.125   .     S
H5944  C6023   1.135   .     S
C5945  O5979   1.418   .     S
C5945  C6056   1.377   .     S
C5945  C5952   1.393   .     S
C5946  H6151   1.138   .     S
C5946  H6076   1.094   .     S
C5946  C6054   1.549   .     S
C5946  H5987   1.125   .     S
N5947  C6047   1.168   .     S
C5948  C6010   1.562   .     S
C5948  C6020   1.508   .     S
C5948  C6038   1.509   .     S
C5948  C6022   1.523   .     S
C5949  C5991   1.444   .     S
C5949  N5984   1.156   .     S
O5951  C6024   1.393   .     S
O5951  C5980   1.362   .     S
C5952  O5983   1.436   .     S
C5954  C5975   1.526   .     S
C5954  C6029   1.477   .     S
C5954  C6034   1.509   .     S
C5954  C5992   1.532   .     S
C5955  C6663   1.344   .     S
C5955  C6008   1.414   .     S
C5955  C6024   1.383   .     S
H5956  C6037   1.100   .     S
C5958  H6028   1.107   .     S
C5959  O5972   1.351   .     S
C5959  C6025   1.378   .     S
C5959  C5988   1.442   .     S
C5960  C5965   1.368   .     S
C5960  C6015   1.389   .     S
C5960  O5979   1.408   .     S
O5961  C6039   1.382   .     S
O5961  C6035   1.448   .     S
H5962  C6070   1.074   .     S
H5963  C6025   1.069   .     S
C5964  C6029   1.432   .     S
C5964  C5970   1.381   .     S
C5965  O5983   1.428   .     S
C5965  C5991   1.375   .     S
C5966  C6066   1.532   .     S
C5966  C6034   1.550   .     S
C5966  C6057   1.501   .     S
C5966  C8088   1.544   1_545 S
H5967  C6038   1.087   .     S
H5968  C6189   1.132   .     S
H5969  C6078   1.140   .     S
C5970  C5988   1.406   .     S
C5970  H6031   1.181   .     S
C5971  C6018   1.433   .     S
C5971  C6003   1.375   .     S
C5971  O6033   1.374   .     S
O5972  C6018   1.412   .     S
O5973  C6008   1.366   .     S
O5973  C6032   1.449   .     S
H5974  C6057   1.068   .     S
C5975  H5989   1.135   .     S
C5977  C6037   1.396   .     S
C5977  C6032   1.401   .     S
C5977  O6036   1.414   .     S
C5978  C6003   1.463   .     S
C5978  N6019   1.181   .     S
C5980  C6039   1.413   .     S
C5981  C5998   1.525   .     S
C5981  C6058   1.382   .     S
H5982  C6023   1.126   .     S
C5985  C6003   1.391   .     S
C5985  O6046   1.395   .     S
O5986  C5997   1.376   .     S
O5986  C6013   1.401   .     S
C5988  O6033   1.402   .     S
H5990  C6057   1.095   .     S
C5992  C6066   1.363   .     S
C5994  C6020   1.436   .     S
C5994  C6068   1.324   .     S
C5994  C5998   1.570   .     S
C5995  C6002   1.399   .     S
C5995  C6050   1.476   .     S
C5996  C6045   1.381   .     S
C5996  O8019   1.350   1_545 S
C5996  C8092   1.492   1_545 S
C5997  C6596   1.358   .     S
C5997  C6055   1.396   .     S
C5998  C6022   1.555   .     S
C5998  C6070   1.555   .     S
H6000  C6034   1.082   .     S
H6001  C6016   1.102   .     S
C6002  C6037   1.382   .     S
C6002  C6054   1.482   .     S
C6004  N6011   1.157   .     S
C6004  C6005   1.348   .     S
C6005  C6021   1.389   .     S
C6005  C6035   1.404   .     S
H6006  C6023   1.114   .     S
H6007  C6055   1.102   .     S
C6008  C6021   1.456   .     S
C6009  C6015   1.420   .     S
C6010  H6026   1.090   .     S
C6010  H6017   1.131   .     S
C6010  H6030   1.085   .     S
H6012  C6022   1.115   .     S
C6013  C6666   1.360   .     S
C6013  C451    1.414   1_655 S
H6014  C6016   1.088   .     S
C6015  C6064   1.430   .     S
C6016  C6657   1.461   .     S
C6020  C6045   1.377   .     S
C6021  O6036   1.479   .     S
C6022  H6059   1.114   .     S
C6024  C6035   1.440   .     S
C6025  C6029   1.422   .     S
H6027  C6057   1.110   .     S
C6034  H6040   1.108   .     S
C6038  H6060   1.099   .     S
C6038  H6051   1.106   .     S
C6041  H6063   1.083   .     S
C6041  H6052   1.108   .     S
H6042  C6067   1.056   .     S
H6043  C6181   1.086   .     S
H6044  C6062   1.070   .     S
C6045  H6071   1.116   .     S
O6046  C6049   1.356   .     S
C6047  C458    1.389   1_655 S
H6048  C6062   1.076   .     S
C6049  C517    1.416   1_655 S
C6050  C6079   1.492   .     S
C6050  C6189   1.544   .     S
C6050  C6095   1.563   .     S
H6053  C6067   1.111   .     S
C6054  C6095   1.544   .     S
C6054  C6062   1.547   .     S
C6055  C6079   1.397   .     S
C6056  C6058   1.385   .     S
C6056  H8222   1.080   1_545 S
C6058  C6072   1.518   .     S
H6061  C6665   1.173   .     S
C6062  H6103   1.054   .     S
C6064  N8277   1.185   1_545 S
H6065  C6543   1.098   .     S
C6067  C6671   1.546   .     S
C6068  H6069   1.131   .     S
C6068  C8092   1.443   1_545 S
C6070  H6192   1.097   .     S
C6070  C6072   1.531   .     S
C6072  C8011   1.504   1_545 S
C6072  C8173   1.473   1_545 S
H6073  C421    1.086   1_655 S
O6074  C352    1.435   1_655 S
O6074  C416    1.443   1_655 S
C6075  C518    1.408   1_655 S
C6075  C352    1.367   1_655 S
C6078  H6655   1.076   .     S
C6079  C6190   1.368   .     S
O6080  C6094   1.404   .     S
O6080  C6157   1.380   .     S
H6081  C6138   1.191   .     S
H6082  C6111   1.143   .     S
C6083  N6143   1.144   .     S
C6083  C6155   1.400   .     S
C6084  O6119   1.364   .     S
C6084  C5652   1.400   1_556 S
C6084  C5656   1.440   1_556 S
H6085  C6095   1.120   .     S
C6086  H6125   1.107   .     S
C6086  C6164   1.527   .     S
C6086  C6171   1.566   .     S
C6086  H6113   1.106   .     S
C6087  C6169   1.381   .     S
C6087  O6134   1.368   .     S
C6087  C6150   1.434   .     S
C6088  C6189   1.515   .     S
C6088  C6190   1.472   .     S
C6088  C6674   1.527   .     S
C6088  C6720   1.554   .     S
O6089  C6133   1.392   .     S
O6089  C6169   1.417   .     S
C6090  C6138   1.402   .     S
C6090  C607    1.423   1_655 S
C6090  O671    1.384   1_655 S
C6091  O6119   1.394   .     S
C6091  C6122   1.405   .     S
C6091  C6156   1.403   .     S
H6092  C6121   1.166   .     S
C6093  O6114   1.346   .     S
C6093  C6104   1.395   .     S
C6093  C6094   1.382   .     S
C6094  C6096   1.353   .     S
C6095  H6099   1.096   .     S
C6096  C6144   1.376   .     S
C6096  H6118   1.110   .     S
C6097  C6163   1.531   .     S
C6097  C6152   1.496   .     S
C6097  C6147   1.513   .     S
C6097  C6115   1.499   .     S
H6098  C6147   1.107   .     S
H6100  C6115   1.102   .     S
C6101  C6164   1.534   .     S
C6101  C6135   1.377   .     S
C6101  C6138   1.398   .     S
H6102  C6191   1.090   .     S
C6104  H6149   1.056   .     S
C6104  C6130   1.383   .     S
H6105  C6141   1.133   .     S
C6106  H6116   1.148   .     S
C6106  C6164   1.568   .     S
C6106  H6128   1.112   .     S
C6106  C6187   1.580   .     S
O6107  C6740   1.367   .     S
O6107  C6170   1.447   .     S
H6108  C6174   1.094   .     S
C6109  C6156   1.447   .     S
C6109  N6120   1.148   .     S
N6110  C5640   1.154   1_556 S
C6111  H6180   1.074   .     S
C6111  H6142   1.094   .     S
C6111  C6187   1.517   .     S
C6112  C6157   1.437   .     S
C6112  O6114   1.355   .     S
C6112  C6183   1.357   .     S
C6115  H6129   1.094   .     S
C6115  C6160   1.544   .     S
C6117  C6162   1.368   .     S
C6117  C6182   1.368   .     S
C6117  H634    1.097   1_655 S
C6121  C6184   1.432   .     S
C6121  C6132   1.403   .     S
C6122  C6150   1.377   .     S
C6122  O6188   1.439   .     S
H6123  C6147   1.086   .     S
O6124  C6175   1.389   .     S
O6124  C6145   1.392   .     S
C6126  C6181   1.535   .     S
C6126  C6144   1.462   .     S
C6126  C6179   1.517   .     S
C6126  C553    1.525   1_655 S
H6127  C6141   1.145   .     S
C6130  C6160   1.571   .     S
C6130  C6144   1.386   .     S
C6131  H6136   1.115   .     S
C6131  C6159   1.495   .     S
C6131  H6178   1.151   .     S
C6131  H6139   1.095   .     S
C6132  O6134   1.384   .     S
C6132  C6133   1.367   .     S
C6135  C6185   1.386   .     S
C6135  C6171   1.535   .     S
C6137  C6150   1.366   .     S
C6137  N6176   1.172   .     S
N6140  C6153   1.151   .     S
C6141  C6159   1.521   .     S
C6145  C6182   1.415   .     S
C6145  C6174   1.401   .     S
H6146  C6189   1.107   .     S
C6147  H6167   1.155   .     S
C6152  H6172   1.107   .     S
C6152  H6154   1.066   .     S
C6152  H6166   1.062   .     S
C6153  C6183   1.419   .     S
C6155  C6170   1.390   .     S
C6155  C6175   1.437   .     S
C6156  C6169   1.379   .     S
C6157  C6703   1.360   .     S
H6158  C6173   1.079   .     S
C6159  C6184   1.445   .     S
C6160  C6179   1.553   .     S
C6160  C6162   1.522   .     S
H6161  C8173   1.119   1_545 S
C6162  C6163   1.415   .     S
C6163  C6174   1.361   .     S
C6164  C5689   1.471   1_556 S
H6165  C6181   1.085   .     S
C6170  C677    1.399   1_655 S
C6171  C6191   1.531   .     S
C6171  C8193   1.582   1_545 S
C6173  C6187   1.570   .     S
C6173  H5756   1.064   1_556 S
C6173  H5728   1.085   1_556 S
C6175  C6193   1.436   .     S
H6177  C6720   1.077   .     S
C6179  H6186   1.107   .     S
C6179  H657    1.105   1_655 S
C6181  H6195   1.095   .     S
C6182  O654    1.401   1_655 S
C6183  C6715   1.344   .     S
C6185  C607    1.382   1_655 S
C6185  H8278   1.102   1_545 S
C6187  C5711   1.494   1_556 S
O6188  C5656   1.385   1_556 S
C6190  C6842   1.451   .     S
C6191  H8264   1.102   1_545 S
C6191  H8276   1.028   1_545 S
C6193  C564    1.369   1_655 S
C6193  O654    1.362   1_655 S
H6194  C6360   1.077   1_556 S
H6196  C177    1.099   1_655 S
C6197  O6200   1.401   .     S
C6197  C6328   1.359   .     S
C6197  C6223   1.398   .     S
C6198  C6319   1.423   .     S
C6198  C6252   1.353   .     S
C6198  O6200   1.410   .     S
C6199  H6305   1.088   .     S
C6199  H6358   1.095   .     S
H6201  C6202   1.078   .     S
C6202  C6249   1.372   .     S
C6202  C6319   1.398   .     S
H6203  C6253   1.123   .     S
H6204  C6390   1.089   .     S
H6205  C6266   1.165   .     S
H6206  C6224   1.081   .     S
N6207  C6324   1.198   .     S
C6208  H6341   1.083   .     S
C6208  H6281   1.129   .     S
C6208  C6236   1.489   .     S
C6208  H6259   1.117   .     S
H6209  C6254   1.096   .     S
H6210  C6258   1.072   .     S
H6211  C6831   1.115   1_554 S
C6213  C6289   1.441   .     S
C6213  O6472   1.345   .     S
H6214  C6338   1.124   .     S
C6215  C6321   1.407   .     S
C6215  H6264   1.131   .     S
C6215  C6238   1.404   .     S
H6216  C6320   1.089   .     S
H6217  C6231   1.122   .     S
H6219  C6253   1.117   .     S
H6220  C6246   1.055   .     S
H6222  C6302   1.087   .     S
C6223  C6357   1.405   .     S
C6223  C6228   1.389   .     S
C6224  H6309   1.089   .     S
C6224  C6331   1.557   .     S
C6224  H6315   1.086   .     S
H6225  C6364   1.068   .     S
N6226  C6856   1.144   .     S
H6227  C6299   1.091   .     S
H6229  C6339   1.090   .     S
C6230  C6273   1.403   .     S
C6230  O6312   1.393   .     S
C6230  C6294   1.401   .     S
C6231  C6271   1.580   .     S
C6231  C6840   1.494   1_554 S
C6231  H6841   1.095   1_554 S
H6232  C6325   1.080   .     S
C6233  C6338   1.388   .     S
C6233  C6271   1.534   .     S
C6233  C6778   1.375   1_554 S
H6234  C6278   1.105   .     S
H6235  C6280   1.086   .     S
C6236  C6246   1.592   .     S
C6236  C6251   1.544   .     S
C6236  C6254   1.489   .     S
H6237  C6339   1.130   .     S
C6238  C6914   1.437   .     S
C6238  O737    1.377   1_655 S
C6239  C6288   1.384   .     S
C6240  C7000   1.374   .     S
C6240  C6285   1.522   .     S
C6240  C6321   1.380   .     S
H6241  C6349   1.079   .     S
H6242  C6339   1.104   .     S
C6243  C6344   1.352   .     S
C6243  H6368   1.117   .     S
C6243  C6261   1.415   .     S
N6244  C6292   1.181   .     S
C6245  C6251   1.372   .     S
C6245  C6320   1.426   .     S
C6245  C6256   1.480   .     S
C6246  H6257   1.141   .     S
C6246  H6283   1.093   .     S
H6247  C6252   1.100   .     S
H6248  C6254   1.151   .     S
C6249  C6331   1.521   .     S
C6249  C6250   1.393   .     S
C6250  C6252   1.423   .     S
C6250  C6256   1.479   .     S
C6251  C6294   1.353   .     S
C6253  C6362   1.579   .     S
C6254  C6256   1.566   .     S
C6255  C6328   1.440   .     S
C6256  C6349   1.536   .     S
C6258  C6316   1.360   .     S
C6258  C6333   1.422   .     S
H6260  C743    1.139   1_655 S
C6261  C6286   1.409   .     S
H6263  C6287   1.086   .     S
C6265  H6267   1.076   .     S
C6265  C6346   1.520   .     S
C6265  C6285   1.538   .     S
C6265  H6340   1.096   .     S
C6266  H6296   1.118   .     S
C6266  C6297   1.537   .     S
C6266  H6323   1.114   .     S
H6268  C6307   1.124   .     S
H6269  C6366   1.138   .     S
C6270  C6334   1.380   .     S
C6270  C6329   1.410   .     S
C6270  O6330   1.353   .     S
C6271  C6325   1.530   .     S
C6271  C6679   1.510   1_554 S
H6272  C6278   1.068   .     S
C6273  O6275   1.379   .     S
C6273  C6320   1.357   .     S
H6274  C6349   1.104   .     S
O6275  C7027   1.406   .     S
N6276  C6306   1.167   .     S
H6277  C6287   1.094   .     S
C6278  C6996   1.571   .     S
C6278  H6837   1.088   1_554 S
O6279  C6335   1.421   .     S
O6279  C838    1.380   1_655 S
C6280  H6300   1.055   .     S
C6280  H6295   1.122   .     S
C6280  C6840   1.585   1_554 S
O6282  C6319   1.369   .     S
O6282  C6328   1.435   .     S
H6284  C6364   1.084   .     S
C6285  C7014   1.541   .     S
C6285  C6366   1.464   .     S
C6286  C6313   1.404   .     S
C6286  C6361   1.544   .     S
C6287  H6336   1.128   .     S
C6287  C6768   1.504   1_554 S
C6288  H6345   1.133   .     S
C6288  C6289   1.409   .     S
C6289  O6352   1.409   .     S
O6290  C6293   1.380   .     S
O6290  C6351   1.367   .     S
C6293  C6307   1.383   .     S
C6293  C6333   1.410   .     S
C6294  H6342   1.140   .     S
C6297  C6353   1.545   .     S
C6297  C6299   1.519   .     S
C6297  C6302   1.532   .     S
C6298  C6307   1.361   .     S
C6298  C6346   1.552   .     S
C6298  C6316   1.400   .     S
C6299  H6343   1.048   .     S
O6301  C6310   1.403   .     S
O6301  C6329   1.384   .     S
C6302  C6362   1.516   .     S
C6302  H6350   1.080   .     S
H6303  C6497   1.053   .     S
H6304  C6313   1.123   .     S
C6306  C6355   1.388   .     S
C6310  C6313   1.378   .     S
C6310  C6344   1.439   .     S
H6311  C6325   1.042   .     S
O6312  C6951   1.374   .     S
C6314  H6369   1.122   .     S
C6314  C6881   1.479   .     S
C6314  H6337   1.087   .     S
C6314  C6816   1.530   1_554 S
C6316  C6441   1.497   .     S
C6317  C6911   1.380   .     S
C6317  C6335   1.394   .     S
C6317  O731    1.409   1_655 S
O6318  C6326   1.390   .     S
O6318  C6333   1.360   .     S
C6321  C6346   1.505   .     S
C6322  C6351   1.348   .     S
C6322  C6324   1.483   .     S
C6322  C6329   1.395   .     S
C6325  C697    1.560   1_655 S
C6326  C6351   1.411   .     S
C6326  C6334   1.355   .     S
C6327  N6347   1.129   .     S
C6327  C6476   1.412   .     S
O6330  C6344   1.379   .     S
C6331  C6339   1.561   .     S
C6331  C6349   1.540   .     S
H6332  C6366   1.127   .     S
C6334  C6348   1.362   .     S
C6335  C6355   1.375   .     S
C6338  C7600   1.392   1_554 S
C6346  C6506   1.530   .     S
C6348  N6356   1.163   .     S
O6352  C6380   1.420   .     S
C6355  C6993   1.364   .     S
C6357  N6372   1.130   .     S
H6359  C7022   1.129   .     S
C6360  C6361   1.528   .     S
C6360  H6194   1.077   1_554 S
C6361  C6364   1.557   .     S
C6361  C6774   1.522   1_554 S
H6363  C6364   1.093   .     S
H6365  C805    1.076   1_655 S
C6366  H6960   1.071   .     S
H6370  C6371   1.132   .     S
C6371  C6490   1.413   .     S
C6371  C6482   1.419   .     S
C6373  C6389   1.536   .     S
C6373  C6419   1.524   .     S
C6373  C6468   1.543   .     S
C6373  C872    1.567   1_655 S
C6374  H6403   1.070   .     S
C6374  H6449   1.103   .     S
C6374  H6504   1.122   .     S
C6374  C6381   1.518   .     S
H6375  C6451   1.132   .     S
C6376  C6423   1.389   .     S
C6376  C6507   1.554   .     S
C6376  C6440   1.404   .     S
H6377  C6398   1.161   .     S
H6378  C6448   1.114   .     S
C6379  C6425   1.348   .     S
C6379  C6439   1.347   .     S
C6379  C6489   1.409   .     S
C6380  C6476   1.374   .     S
C6380  C6470   1.433   .     S
C6381  C6497   1.518   .     S
C6381  C1022   1.571   1_655 S
H6382  C6469   1.131   .     S
H6383  C6428   1.102   .     S
C6384  H7171   1.095   .     S
C6384  C6475   1.570   .     S
C6384  H6516   1.164   .     S
C6384  H7214   1.100   .     S
H6385  C6408   1.057   .     S
O6386  C6421   1.435   .     S
O6386  C6512   1.368   .     S
O6387  C6422   1.392   .     S
O6387  C6539   1.369   .     S
C6388  C6496   1.368   .     S
C6388  O6464   1.382   .     S
C6388  C6494   1.426   .     S
C6389  C6415   1.348   .     S
C6389  C993    1.386   1_655 S
C6390  H6396   1.086   .     S
C6390  C6441   1.548   .     S
C6390  H6500   1.110   .     S
N6391  C6489   1.164   .     S
H6392  C6469   1.133   .     S
C6393  C6428   1.590   .     S
C6393  C6458   1.513   .     S
C6393  C6479   1.496   .     S
C6393  C6490   1.473   .     S
H6394  C6496   1.088   .     S
C6395  N6447   1.192   .     S
C6395  C6459   1.428   .     S
H6397  C7215   1.182   .     S
C6398  H6501   1.104   .     S
C6398  C6427   1.538   .     S
C6398  H6495   1.088   .     S
H6399  C6454   1.164   .     S
H6400  C6506   1.104   .     S
C6401  C6431   1.406   .     S
C6401  C6459   1.423   .     S
C6401  O6432   1.367   .     S
H6402  C6469   1.153   .     S
N6404  C7204   1.182   .     S
H6406  C6457   1.072   .     S
H6407  C6456   1.110   .     S
C6408  C6507   1.540   .     S
C6408  H6450   1.105   .     S
C6408  C6427   1.563   .     S
H6409  C6428   1.129   .     S
C6410  C6453   1.408   .     S
C6410  O6442   1.366   .     S
C6410  C6417   1.415   .     S
O6411  C6463   1.387   .     S
O6411  C6431   1.428   .     S
H6412  C6448   1.071   .     S
N6413  C6474   1.148   .     S
C6414  C6436   1.488   .     S
C6414  H6418   1.069   .     S
C6414  H6438   1.123   .     S
C6414  H6492   1.065   .     S
C6415  H6488   1.114   .     S
C6415  C6460   1.425   .     S
H6416  C6453   1.055   .     S
C6417  O6664   1.349   .     S
C6417  C6443   1.397   .     S
C6419  H6509   1.129   .     S
C6419  C6515   1.553   .     S
C6419  H887    1.067   1_655 S
H6420  C7213   1.071   .     S
C6421  C6434   1.378   .     S
C6421  C6425   1.424   .     S
C6422  C6455   1.399   .     S
C6422  C6456   1.387   .     S
C6423  C6494   1.379   .     S
H6424  C6466   1.088   .     S
C6425  O6437   1.423   .     S
H6426  C6457   1.143   .     S
C6427  C6454   1.504   .     S
C6427  C6440   1.514   .     S
C6428  C6475   1.527   .     S
H6429  C6458   1.104   .     S
H6430  C6451   1.168   .     S
C6431  C6514   1.367   .     S
O6432  C6460   1.378   .     S
H6433  C6497   1.092   .     S
C6434  C6498   1.410   .     S
H6435  C6458   1.071   .     S
C6436  C6458   1.489   .     S
C6436  C6457   1.502   .     S
C6436  C6445   1.570   .     S
O6437  C6517   1.346   .     S
C6439  O6464   1.416   .     S
C6439  C6498   1.415   .     S
C6440  C6496   1.402   .     S
C6441  C6506   1.534   .     S
C6441  C6448   1.535   .     S
O6442  C6645   1.374   .     S
C6443  C6445   1.352   .     S
C6443  H6446   1.095   .     S
O6444  C6566   1.393   .     S
O6444  C6455   1.392   .     S
C6445  C6479   1.387   .     S
C6448  H6503   1.065   .     S
C6451  C6515   1.541   .     S
C6451  H6502   1.115   .     S
C6452  C6455   1.415   .     S
C6452  H6486   1.158   .     S
C6452  C6468   1.412   .     S
C6453  C6479   1.366   .     S
C6454  H6505   1.095   .     S
C6454  H6462   1.088   .     S
C6456  C6499   1.373   .     S
C6457  H6485   1.148   .     S
C6459  C6481   1.400   .     S
C6460  C6463   1.397   .     S
O6461  C6481   1.435   .     S
O6461  C7113   1.424   .     S
C6463  C6513   1.413   .     S
C6465  C6475   1.545   .     S
C6465  C6490   1.378   .     S
C6465  C6466   1.358   .     S
C6466  C6484   1.354   .     S
C6467  H6478   1.066   .     S
C6467  H6511   1.056   .     S
C6468  C6499   1.377   .     S
C6469  C6475   1.528   .     S
C6470  O6472   1.404   .     S
C6470  C6473   1.416   .     S
C6471  C6473   1.392   .     S
C6471  C6477   1.415   .     S
C6471  O6480   1.376   .     S
C6473  C6474   1.351   .     S
C6476  C6477   1.378   .     S
C6477  O6483   1.427   .     S
O6480  C6482   1.348   .     S
C6481  C6508   1.360   .     S
C6482  C6484   1.429   .     S
O6483  C6484   1.430   .     S
O6487  C6498   1.447   .     S
O6487  C6494   1.383   .     S
H6491  C6506   1.043   .     S
H6493  C6497   1.073   .     S
C6499  C6515   1.550   .     S
C6508  C6514   1.371   .     S
C6508  O7030   1.430   .     S
H6510  C330    1.087   1_655 S
C6512  C6517   1.395   .     S
C6513  H935    1.132   1_655 S
C6513  C993    1.401   1_655 S
C6514  C7068   1.446   .     S
C6515  C971    1.509   1_655 S
H6520  C6627   1.087   .     S
C6521  H6621   1.121   .     S
C6521  H6650   1.135   .     S
C6521  H6523   1.028   .     S
C6521  C6594   1.520   .     S
C6522  C6671   1.520   .     S
C6522  C6558   1.380   .     S
C6522  C6642   1.357   .     S
O6524  C6551   1.364   .     S
O6524  C1179   1.390   1_655 S
O6525  C6598   1.389   .     S
O6525  C6527   1.421   .     S
O6526  C6546   1.429   .     S
O6526  C6653   1.403   .     S
C6527  C6640   1.409   .     S
C6527  C6591   1.385   .     S
O6528  C6596   1.368   .     S
O6528  C6666   1.447   .     S
O6529  C6544   1.362   .     S
O6529  C6540   1.366   .     S
C6530  C6639   1.392   .     S
C6530  C6580   1.421   .     S
C6530  C6605   1.545   .     S
C6531  C6591   1.334   .     S
C6531  C6672   1.413   .     S
C6531  C6645   1.385   .     S
C6532  C6594   1.554   .     S
C6532  H6534   1.083   .     S
C6532  H6568   1.087   .     S
C6532  H6574   1.138   .     S
O6533  C6677   1.377   .     S
O6533  C6647   1.387   .     S
C6535  C6537   1.517   .     S
C6535  C6654   1.613   .     S
C6535  H6659   1.173   .     S
C6535  H1066   1.111   1_655 S
H6536  C6646   1.057   .     S
C6537  C6561   1.553   .     S
C6537  C6648   1.575   .     S
C6537  C6538   1.565   .     S
C6538  H6589   1.127   .     S
C6538  H6584   1.062   .     S
C6538  H6569   1.074   .     S
C6539  C6573   1.405   .     S
C6539  C6566   1.409   .     S
C6540  C6600   1.371   .     S
C6541  C6578   1.448   .     S
C6541  C6647   1.383   .     S
C6541  O6617   1.382   .     S
C6542  H6587   1.097   .     S
C6542  H6579   1.044   .     S
C6542  C6605   1.543   .     S
C6542  H6554   1.129   .     S
C6543  H6592   1.088   .     S
C6543  H6669   1.087   .     S
C6543  C6657   1.561   .     S
C6544  C7248   1.355   .     S
C6545  O6631   1.461   .     S
C6545  C6552   1.422   .     S
C6545  C6638   1.380   .     S
C6546  C6609   1.374   .     S
C6546  C6613   1.424   .     S
H6547  C6652   1.082   .     S
C6548  C6627   1.595   .     S
C6548  C6570   1.560   .     S
C6548  C6610   1.582   .     S
C6548  C6580   1.532   .     S
N6549  C6559   1.167   .     S
H6550  C6627   1.115   .     S
C6551  C6614   1.407   .     S
C6551  C1157   1.406   1_655 S
C6552  C6573   1.357   .     S
C6552  O6615   1.405   .     S
C6553  C6761   1.367   .     S
C6553  H6593   1.106   .     S
C6553  C6634   1.369   .     S
C6555  C6640   1.429   .     S
C6555  C6645   1.384   .     S
C6555  O6664   1.420   .     S
C6556  O6616   1.388   .     S
C6556  C6601   1.384   .     S
C6556  C6653   1.386   .     S
H6557  C6748   1.150   .     S
C6558  C6590   1.388   .     S
C6558  C6657   1.556   .     S
C6559  C6573   1.429   .     S
C6561  C6618   1.396   .     S
C6561  C6636   1.387   .     S
O6562  C6633   1.367   .     S
O6562  C6668   1.403   .     S
H6563  C6610   1.128   .     S
H6564  C6648   1.039   .     S
H6565  C6641   1.175   .     S
C6566  C6638   1.422   .     S
H6567  C7215   1.126   .     S
C6570  C6646   1.361   .     S
C6570  C6602   1.418   .     S
N6571  C6575   1.145   .     S
F6572  C6662   1.323   .     S
C6575  C6586   1.472   .     S
O6576  C6643   1.425   .     S
O6576  C6623   1.362   .     S
N6577  C6644   1.176   .     S
C6578  H6649   1.124   .     S
C6578  C6602   1.410   .     S
C6580  C6628   1.368   .     S
C6581  C6722   1.529   .     S
C6581  C6614   1.358   .     S
C6581  C1027   1.402   1_655 S
N6582  C6585   1.173   .     S
N6583  C6608   1.175   .     S
C6585  C6640   1.362   .     S
C6586  C1179   1.379   1_655 S
C6586  C1146   1.426   1_655 S
H6588  C6590   1.150   .     S
C6590  C6598   1.399   .     S
C6591  O6624   1.405   .     S
C6594  C6627   1.504   .     S
C6594  C6602   1.555   .     S
C6595  N6637   1.169   .     S
C6595  C6638   1.397   .     S
C6596  C6842   1.374   .     S
C6597  C6600   1.387   .     S
C6597  O6651   1.453   .     S
C6598  C6626   1.375   .     S
H6599  C6641   1.046   .     S
C6600  C6644   1.401   .     S
C6601  C6662   1.368   .     S
C6601  C6608   1.419   .     S
H6603  C6641   1.121   .     S
H6604  C6648   1.129   .     S
C6605  C6610   1.482   .     S
C6605  C6641   1.529   .     S
H6606  C6838   1.101   .     S
H6607  C6614   1.089   .     S
C6609  C6636   1.374   .     S
C6609  H6619   1.074   .     S
C6610  H6625   1.122   .     S
H6611  C6618   1.110   .     S
H6612  C6665   1.152   .     S
C6613  O6616   1.380   .     S
C6613  C6618   1.377   .     S
O6615  C6635   1.331   .     S
O6617  C7380   1.430   .     S
H6620  C6628   1.096   .     S
C6622  C6628   1.441   .     S
C6622  C6635   1.412   .     S
C6622  O6631   1.384   .     S
C6623  C6633   1.399   .     S
C6623  C6652   1.420   .     S
O6624  C6626   1.407   .     S
C6626  C6642   1.370   .     S
H6629  C6648   1.061   .     S
H6630  C6639   1.065   .     S
H6632  C6642   1.101   .     S
C6633  C6811   1.358   .     S
C6634  O6651   1.355   .     S
C6635  C6639   1.392   .     S
C6636  C6654   1.577   .     S
C6643  C7381   1.396   .     S
C6643  C6668   1.399   .     S
C6646  C6647   1.378   .     S
C6652  C6673   1.409   .     S
C6653  C7308   1.409   .     S
C6654  C7300   1.554   .     S
C6654  C1181   1.527   1_655 S
H6656  C1102   1.121   1_655 S
C6657  C6665   1.587   .     S
H6658  C6674   1.122   .     S
N6660  C6663   1.132   .     S
H6661  C6674   1.049   .     S
C6662  C6676   1.365   .     S
C6665  C6671   1.485   .     S
C6666  C1176   1.436   1_655 S
H6667  C955    1.078   1_655 S
C6668  C6828   1.395   .     S
H6670  C6838   1.188   .     S
C6672  N6678   1.131   .     S
C6673  C6833   1.415   .     S
C6673  C6722   1.492   .     S
C6674  H6835   1.073   .     S
H6675  C6694   1.100   .     S
C6676  C7308   1.384   .     S
C6676  F7377   1.387   .     S
C6677  C7380   1.381   .     S
C6677  C7285   1.368   .     S
C6679  C6771   1.359   .     S
C6679  C6271   1.510   1_556 S
C6679  C1224   1.386   1_655 S
C6680  C6713   1.399   .     S
C6680  C6738   1.395   .     S
C6680  C6816   1.521   .     S
C6681  N6819   1.175   .     S
C6681  C6703   1.407   .     S
C6682  H6780   1.087   .     S
C6682  H6716   1.135   .     S
C6682  C6810   1.568   .     S
C6682  C6722   1.524   .     S
H6683  C6774   1.073   .     S
H6684  C6777   1.043   .     S
H6685  C6760   1.079   .     S
C6686  H6747   1.082   .     S
C6686  H6779   1.133   .     S
C6686  H6712   1.109   .     S
C6686  C6810   1.538   .     S
C6687  H6802   1.118   .     S
C6687  H6717   1.024   .     S
C6687  C6749   1.548   .     S
C6687  H6704   1.081   .     S
C6688  O6701   1.432   .     S
C6688  C6689   1.430   .     S
C6688  C6731   1.382   .     S
C6689  C6829   1.379   .     S
C6689  O6692   1.336   .     S
H6690  C6694   1.096   .     S
C6691  H6744   1.146   .     S
C6691  C6742   1.497   .     S
C6691  H6804   1.095   .     S
C6691  H6727   1.066   .     S
O6692  C6695   1.428   .     S
H6693  C6711   1.088   .     S
C6694  C6722   1.517   .     S
C6694  C1302   1.520   1_655 S
C6695  C6773   1.378   .     S
C6695  C6707   1.452   .     S
C6696  C6768   1.583   .     S
C6696  H6834   1.073   .     S
C6696  H6836   1.035   .     S
C6696  H6817   1.044   .     S
C6697  C6799   1.450   .     S
C6697  C6822   1.380   .     S
C6697  O6800   1.398   .     S
H6698  C6765   1.073   .     S
H6699  C6842   1.099   .     S
H6700  C6758   1.127   .     S
O6701  C6707   1.385   .     S
H6702  C6771   1.118   .     S
C6703  C6818   1.398   .     S
H6705  C6783   1.122   .     S
N6706  C6805   1.133   .     S
C6707  C6713   1.423   .     S
H6708  C6756   1.048   .     S
H6709  C6750   1.107   .     S
C6710  C6778   1.391   .     S
C6710  C7478   1.400   .     S
C6710  H6812   1.087   .     S
C6711  C6736   1.528   .     S
C6711  H6728   1.079   .     S
C6711  H6803   1.131   .     S
C6713  H6820   1.117   .     S
O6714  C6715   1.370   .     S
O6714  C6741   1.389   .     S
C6715  C6818   1.378   .     S
C6718  C6829   1.401   .     S
H6719  C6827   1.099   .     S
C6720  H6826   1.103   .     S
C6720  H6788   1.116   .     S
C6721  C6740   1.439   .     S
C6721  C6733   1.364   .     S
C6721  H6787   1.044   .     S
N6723  C1196   1.129   1_655 S
H6724  C6737   1.111   .     S
C6725  N7477   1.192   .     S
C6725  C6731   1.402   .     S
H6726  C6777   1.146   .     S
H6729  C6773   1.183   .     S
C6730  C6756   1.500   .     S
C6730  C6809   1.489   .     S
C6730  C6827   1.504   .     S
C6730  C1277   1.537   1_655 S
C6732  H6824   1.098   .     S
C6732  C6736   1.498   .     S
C6732  H6755   1.145   .     S
C6733  C6742   1.507   .     S
C6733  C6832   1.367   .     S
H6734  C6789   1.104   .     S
H6735  C6789   1.084   .     S
C6736  C6761   1.477   .     S
C6736  C6838   1.581   .     S
C6737  C6741   1.398   .     S
C6737  C6746   1.375   .     S
C6738  C6773   1.407   .     S
C6738  C6768   1.560   .     S
H6739  C6765   1.174   .     S
C6740  C6801   1.419   .     S
C6741  C6795   1.420   .     S
C6742  C6807   1.529   .     S
C6742  C6777   1.535   .     S
H6743  C6774   1.071   .     S
H6745  C6756   1.104   .     S
C6746  C6769   1.543   .     S
C6746  C6754   1.368   .     S
C6748  H6830   1.066   .     S
C6748  C6810   1.554   .     S
C6748  H6793   1.131   .     S
C6749  C6753   1.490   .     S
C6749  C6760   1.522   .     S
C6749  C6750   1.513   .     S
C6750  C6751   1.527   .     S
C6750  H6752   1.102   .     S
C6751  C6759   1.447   .     S
C6751  C6754   1.564   .     S
C6751  C6762   1.593   .     S
C6753  C6758   1.346   .     S
C6753  C6759   1.412   .     S
C6754  C6764   1.385   .     S
C6756  C6782   1.560   .     S
C6757  O7598   1.444   .     S
C6757  C7602   1.397   .     S
C6757  C6828   1.400   .     S
C6758  C6772   1.457   .     S
C6759  C6770   1.389   .     S
C6760  H6767   1.115   .     S
C6760  H6776   1.070   .     S
C6762  H6790   1.107   .     S
C6762  H6763   1.078   .     S
C6762  C6769   1.581   .     S
C6764  H6794   1.074   .     S
C6764  C6795   1.361   .     S
C6765  H6766   1.095   .     S
C6765  C6769   1.492   .     S
C6768  C6831   1.536   .     S
C6768  C6287   1.504   1_556 S
C6769  C6783   1.478   .     S
C6770  C6796   1.428   .     S
C6770  H6792   1.107   .     S
C6771  C1264   1.387   1_655 S
C6772  C6796   1.373   .     S
C6772  O6815   1.386   .     S
C6774  H6786   1.094   .     S
C6774  C6361   1.522   1_556 S
H6775  C6809   1.118   .     S
C6777  H6781   1.171   .     S
C6778  C6840   1.533   .     S
C6778  C6233   1.375   1_556 S
C6782  C6832   1.463   .     S
C6782  C6807   1.497   .     S
C6782  C1335   1.535   1_655 S
C6783  H6784   1.070   .     S
C6783  H6785   1.102   .     S
C6789  H6806   1.127   .     S
C6789  C6840   1.574   .     S
H6791  C6807   1.146   .     S
C6795  O6813   1.365   .     S
C6796  O6800   1.454   .     S
H6797  C6809   1.124   .     S
H6798  C6811   1.129   .     S
C6799  C7556   1.378   .     S
C6799  O6815   1.389   .     S
C6801  C1312   1.353   1_655 S
C6801  O582    1.377   1_655 S
C6805  C6822   1.401   .     S
C6807  H1282   1.088   1_655 S
H6808  C7597   1.118   .     S
C6809  H6839   1.139   .     S
C6810  C6833   1.464   .     S
C6811  C6833   1.421   .     S
O6813  C6818   1.479   .     S
N6814  C6825   1.131   .     S
C6816  C6831   1.566   .     S
C6816  C7599   1.468   .     S
C6816  C6314   1.530   1_556 S
H6821  C6831   1.075   .     S
C6822  C7470   1.355   .     S
H6823  C6838   1.064   .     S
C6825  C6828   1.420   .     S
C6827  H1382   1.091   1_655 S
C6827  H1223   1.113   1_655 S
C6831  H6211   1.115   1_556 S
C6832  C1312   1.395   1_655 S
H6837  C6278   1.088   1_556 S
C6840  C6280   1.585   1_556 S
C6840  C6231   1.494   1_556 S
H6841  C6231   1.095   1_556 S
C6843  C6989   1.409   .     S
C6843  C6879   1.388   .     S
C6843  O6928   1.397   .     S
H6844  C6850   1.077   .     S
C6845  C6856   1.459   .     S
C6845  C6906   1.386   .     S
C6845  C6989   1.399   .     S
C6846  H7007   1.074   .     S
C6846  H6857   1.115   .     S
C6847  C6980   1.378   .     S
C6847  C6956   1.393   .     S
C6847  O6876   1.357   .     S
O6848  C6903   1.434   .     S
O6848  C6984   1.374   .     S
C6849  H6882   1.081   .     S
C6849  H6925   1.076   .     S
C6849  C6939   1.513   .     S
C6849  C6953   1.525   .     S
C6850  C6961   1.398   .     S
C6850  C6983   1.382   .     S
C6851  C6896   1.530   .     S
C6851  C6924   1.389   .     S
C6851  C6887   1.366   .     S
H6852  C6888   1.073   .     S
C6853  C7666   1.410   .     S
C6853  N7028   1.149   .     S
C6854  C6991   1.410   .     S
C6854  C6864   1.399   .     S
C6854  C7027   1.392   .     S
N6855  C6950   1.164   .     S
C6858  O6928   1.408   .     S
C6858  C6893   1.398   .     S
C6858  C7009   1.411   .     S
H6859  C6870   1.126   .     S
C6860  C6864   1.442   .     S
C6860  O6867   1.416   .     S
C6860  C6997   1.396   .     S
H6861  C6901   1.168   .     S
C6862  O6866   1.395   .     S
C6862  C7212   1.405   .     S
C6862  C7144   1.427   .     S
C6863  H6968   1.077   .     S
C6863  C6959   1.509   .     S
C6863  H6992   1.164   .     S
C6863  H6971   1.113   .     S
C6864  O6865   1.391   .     S
O6865  C6868   1.433   .     S
O6866  C6988   1.382   .     S
O6867  C6869   1.353   .     S
C6868  C6869   1.420   .     S
C6868  C6870   1.379   .     S
C6869  C6871   1.413   .     S
C6870  C6877   1.427   .     S
C6871  C6878   1.379   .     S
C6871  H6872   1.082   .     S
H6873  C6934   1.105   .     S
C6874  C6911   1.391   .     S
C6874  C6993   1.446   .     S
C6874  O6949   1.402   .     S
H6875  C6899   1.120   .     S
O6876  C6886   1.385   .     S
C6877  C6878   1.403   .     S
C6877  C6953   1.556   .     S
C6878  C6912   1.557   .     S
C6879  C6950   1.389   .     S
C6879  C6984   1.371   .     S
O6880  C7010   1.413   .     S
O6880  C6983   1.371   .     S
C6881  C6934   1.591   .     S
C6881  C7004   1.551   .     S
C6881  C7506   1.501   1_554 S
C6883  H6936   1.091   .     S
C6883  H7016   1.062   .     S
C6883  H7015   1.102   .     S
C6883  C7195   1.499   .     S
H6884  C7009   1.136   .     S
C6885  H6954   1.119   .     S
C6885  C6917   1.388   .     S
C6885  C6967   1.404   .     S
C6886  C6904   1.402   .     S
C6886  C6919   1.422   .     S
C6887  C6930   1.377   .     S
C6887  C7484   1.484   1_554 S
C6888  C6939   1.523   .     S
C6888  H7005   1.083   .     S
C6888  H6926   1.114   .     S
H6889  C6990   1.084   .     S
C6890  C6904   1.359   .     S
C6890  C6916   1.339   .     S
C6890  C6988   1.395   .     S
C6891  C6982   1.405   .     S
C6891  O6898   1.410   .     S
C6891  C6930   1.406   .     S
C6892  H6973   1.102   .     S
C6892  C6912   1.574   .     S
C6892  H6907   1.158   .     S
C6892  H6935   1.072   .     S
C6893  C7022   1.370   .     S
C6893  O6964   1.335   .     S
H6894  C6897   1.055   .     S
O6895  C6914   1.382   .     S
O6895  C1541   1.416   1_655 S
C6896  C6946   1.605   .     S
C6896  C6965   1.538   .     S
C6896  C6990   1.511   .     S
C6897  H6976   1.115   .     S
C6897  H6905   1.108   .     S
C6897  C6912   1.529   .     S
O6898  C6923   1.450   .     S
C6899  H6943   1.034   .     S
C6899  H6985   1.080   .     S
C6899  C1573   1.463   1_655 S
H6900  C6940   1.103   .     S
C6901  C6903   1.388   .     S
C6901  C7209   1.364   .     S
C6902  C7012   1.412   .     S
C6902  C6903   1.455   .     S
C6902  O6910   1.366   .     S
C6904  O6952   1.450   .     S
C6906  C6984   1.426   .     S
C6906  O6910   1.411   .     S
H6908  C6946   1.083   .     S
H6909  C6938   1.064   .     S
C6911  C6981   1.431   .     S
C6912  C6940   1.483   .     S
H6913  C6940   1.102   .     S
C6914  C7000   1.409   .     S
C6915  C7009   1.409   .     S
C6915  C6958   1.364   .     S
C6915  C7475   1.524   1_554 S
C6916  N6977   1.149   .     S
C6917  C6945   1.437   .     S
C6917  O6922   1.341   .     S
O6918  C6942   1.431   .     S
O6918  C6978   1.401   .     S
C6919  C7013   1.356   .     S
C6919  C7011   1.434   .     S
H6920  C7000   1.101   .     S
H6921  C6927   1.110   .     S
O6922  C6993   1.403   .     S
C6923  C7711   1.344   .     S
C6923  C6944   1.397   .     S
C6924  C6982   1.471   .     S
C6924  H6933   1.146   .     S
C6927  H6975   1.126   .     S
C6927  H6962   1.106   .     S
C6927  C6959   1.501   .     S
C6929  H7002   1.111   .     S
C6929  C7020   1.397   .     S
C6929  C6956   1.433   .     S
C6930  H7587   1.108   1_554 S
O6931  C6944   1.369   .     S
O6931  C6982   1.357   .     S
H6932  C6987   1.058   .     S
C6934  H6947   1.112   .     S
C6934  H6948   1.145   .     S
H6937  C7004   1.101   .     S
C6938  C6941   1.430   .     S
C6938  C6978   1.407   .     S
C6939  C6972   1.525   .     S
C6939  C6941   1.526   .     S
C6940  C6953   1.507   .     S
C6941  C6961   1.427   .     S
C6942  C7010   1.453   .     S
C6942  C7565   1.375   1_554 S
C6944  C7019   1.396   .     S
C6945  C6963   1.386   .     S
C6945  O6949   1.357   .     S
C6946  H6986   1.143   .     S
C6946  C6959   1.572   .     S
C6951  C7027   1.415   .     S
C6951  C6997   1.385   .     S
O6952  C6956   1.412   .     S
C6953  C6961   1.549   .     S
H6955  C6972   1.083   .     S
N6957  C6970   1.179   .     S
C6958  C7022   1.388   .     S
C6958  C6996   1.527   .     S
C6959  C6967   1.507   .     S
C6963  H6969   1.109   .     S
C6963  C6965   1.372   .     S
O6964  C6989   1.403   .     S
C6965  C6967   1.398   .     S
H6966  C7004   1.129   .     S
C6970  C6997   1.361   .     S
C6972  H7646   1.152   .     S
C6972  H7713   1.104   .     S
C6974  C7019   1.372   .     S
C6974  N7003   1.166   .     S
C6978  C6983   1.395   .     S
H6979  C7712   1.074   .     S
C6980  H7017   1.084   .     S
C6980  C1514   1.348   1_655 S
C6981  N1511   1.126   1_655 S
C6987  H6994   1.032   .     S
C6987  C1573   1.553   1_655 S
C6987  C1466   1.540   1_655 S
C6988  C7013   1.415   .     S
C6990  H7001   1.124   .     S
C6990  C7484   1.550   1_554 S
C6991  N6999   1.167   .     S
H6995  C7212   1.061   .     S
C6996  C7438   1.508   1_554 S
N6998  C7671   1.127   .     S
C7004  H7006   1.042   .     S
H7008  C7014   1.105   .     S
C7010  C7464   1.392   1_554 S
C7011  N7024   1.158   .     S
C7012  C7202   1.390   .     S
C7012  H7196   1.130   .     S
C7013  O7217   1.442   .     S
C7014  H7101   1.140   .     S
C7014  H7056   1.092   .     S
H7018  C7463   1.102   1_554 S
C7019  C7635   1.403   .     S
C7020  C1514   1.387   1_655 S
C7020  C1466   1.492   1_655 S
H7021  C7199   1.090   .     S
H7025  C7712   1.085   .     S
H7026  C7929   1.122   .     S
H7029  C7456   1.097   1_554 S
O7030  C7135   1.426   .     S
C7031  H7177   1.113   .     S
C7031  H7143   1.091   .     S
C7031  H7194   1.066   .     S
C7031  C7055   1.571   .     S
C7032  H7119   1.120   .     S
C7032  C7084   1.415   .     S
C7032  C7094   1.382   .     S
H7033  C7138   1.081   .     S
H7034  C7147   1.090   .     S
C7035  C7153   1.387   .     S
H7036  C7125   1.079   .     S
C7037  C7040   1.422   .     S
C7037  C7079   1.419   .     S
C7037  O7049   1.412   .     S
C7038  C7182   1.496   .     S
C7038  C7186   1.554   .     S
C7038  C7075   1.498   .     S
C7038  C7202   1.563   .     S
C7039  C7199   1.582   .     S
C7039  C7093   1.471   .     S
C7039  C7110   1.532   .     S
C7039  C7149   1.577   .     S
C7040  C7052   1.434   .     S
C7040  C7091   1.393   .     S
O7041  C7158   1.361   .     S
O7041  C1631   1.450   1_655 S
N7042  C7154   1.166   .     S
C7043  C7183   1.416   .     S
C7043  N7090   1.147   .     S
H7044  C7108   1.129   .     S
H7045  C7148   1.103   .     S
C7046  C7933   1.399   .     S
C7046  N7168   1.142   .     S
C7047  C7175   1.536   .     S
C7047  C7117   1.579   .     S
C7047  C7161   1.585   .     S
C7047  C7130   1.485   .     S
C7048  C7198   1.541   .     S
C7048  C7189   1.398   .     S
C7048  C7354   1.415   .     S
O7049  C7103   1.312   .     S
C7050  H7252   1.073   .     S
C7050  C7188   1.382   .     S
C7050  C7103   1.389   .     S
H7051  C7182   1.072   .     S
C7052  O7096   1.449   .     S
C7052  C7064   1.440   .     S
H7053  C7110   1.047   .     S
H7054  C7122   1.126   .     S
C7055  C7077   1.541   .     S
C7055  C7117   1.571   .     S
C7055  C7072   1.539   .     S
C7057  H7191   1.124   .     S
C7057  H7152   1.076   .     S
C7057  C7178   1.514   .     S
C7057  H7111   1.110   .     S
H7058  C7163   1.071   .     S
C7059  C7064   1.350   .     S
C7059  C7079   1.391   .     S
C7059  C7112   1.428   .     S
C7060  H7127   1.140   .     S
C7060  C7093   1.375   .     S
C7060  C7144   1.416   .     S
H7061  C7184   1.060   .     S
C7062  C7063   1.400   .     S
C7062  C7174   1.343   .     S
C7062  H7076   1.103   .     S
C7063  C7158   1.423   .     S
C7063  O7095   1.367   .     S
C7064  O7083   1.413   .     S
H7065  C7189   1.157   .     S
H7066  C7186   1.141   .     S
H7067  C7149   1.083   .     S
C7068  N7176   1.157   .     S
C7069  C7103   1.418   .     S
C7069  C7123   1.386   .     S
C7069  O7120   1.413   .     S
C7070  H7146   1.130   .     S
C7070  H7150   1.107   .     S
C7070  C7092   1.521   .     S
C7070  H7128   1.065   .     S
C7072  C7175   1.387   .     S
C7072  C7138   1.384   .     S
C7073  O7131   1.394   .     S
C7073  C7207   1.407   .     S
C7073  C1606   1.388   1_655 S
H7074  C7077   1.136   .     S
C7075  H7145   1.109   .     S
C7075  H7197   1.096   .     S
C7075  H7165   1.130   .     S
C7077  H7082   1.082   .     S
C7077  H7137   1.112   .     S
C7078  C7208   1.571   .     S
C7078  C7123   1.363   .     S
C7078  C7188   1.362   .     S
C7079  O7120   1.416   .     S
H7080  C7201   1.081   .     S
H7081  C7182   1.120   .     S
O7083  C7094   1.408   .     S
H7085  C7125   1.069   .     S
C7087  H7932   1.098   .     S
C7087  H7166   1.110   .     S
C7087  C7178   1.555   .     S
C7087  H1761   1.066   1_655 S
C7088  C7105   1.368   .     S
C7088  O7131   1.412   .     S
C7088  C7138   1.419   .     S
H7089  C7186   1.092   .     S
C7091  N7394   1.178   .     S
C7092  C7148   1.525   .     S
C7092  C7122   1.571   .     S
C7093  C7102   1.375   .     S
C7094  C7153   1.443   .     S
O7095  C7167   1.390   .     S
O7096  C7153   1.383   .     S
H7097  C7110   1.091   .     S
H7099  C7213   1.128   .     S
C7100  H7181   1.082   .     S
C7100  C7301   1.529   .     S
C7100  H7187   1.133   .     S
C7100  H7124   1.110   .     S
C7102  C7151   1.544   .     S
C7102  C7212   1.416   .     S
H7104  C7130   1.158   .     S
C7105  O7162   1.382   .     S
C7105  C7156   1.367   .     S
H7106  C7184   1.116   .     S
H7107  C7130   1.141   .     S
C7108  C7161   1.424   .     S
C7108  C7135   1.399   .     S
H7109  C7221   1.073   .     S
C7110  H7164   1.132   .     S
C7112  N7169   1.147   .     S
C7113  C7135   1.415   .     S
C7113  C7155   1.411   .     S
H7114  C7201   1.067   .     S
C7115  C7207   1.371   .     S
C7115  C7204   1.390   .     S
C7115  C1609   1.375   1_655 S
H7116  C7148   1.120   .     S
C7117  H7139   1.085   .     S
C7117  H7134   1.095   .     S
H7118  C7123   1.121   .     S
H7121  C7163   1.073   .     S
C7122  H7218   1.149   .     S
C7125  H7173   1.128   .     S
C7125  C7198   1.607   .     S
C7126  C7159   1.483   .     S
C7126  C7930   1.542   .     S
C7126  C7188   1.536   .     S
C7126  C7292   1.595   .     S
H7129  C7148   1.106   .     S
C7130  C7172   1.510   .     S
H7132  C7184   1.157   .     S
H7133  C7163   1.114   .     S
C7136  H7140   1.080   .     S
C7136  H7157   1.104   .     S
C7136  C7172   1.535   .     S
C7136  H7142   1.121   .     S
H7141  C7199   1.133   .     S
C7144  O7217   1.405   .     S
C7147  C7179   1.385   .     S
C7147  C7750   1.404   .     S
C7149  H7192   1.112   .     S
C7149  C7151   1.572   .     S
C7151  C7209   1.563   .     S
C7151  C7186   1.541   .     S
C7154  C7925   1.377   .     S
C7155  C7185   1.377   .     S
C7155  H7205   1.066   .     S
C7156  H7170   1.094   .     S
C7156  C7175   1.431   .     S
C7158  C7897   1.375   .     S
C7159  H7916   1.054   .     S
C7159  H7210   1.105   .     S
C7159  C7208   1.526   .     S
H7160  C7284   1.090   .     S
C7161  C7185   1.391   .     S
O7162  C7207   1.400   .     S
C7163  C7195   1.508   .     S
C7167  C7183   1.427   .     S
C7167  C1631   1.385   1_655 S
C7172  C7185   1.468   .     S
C7172  C7184   1.500   .     S
C7174  C7756   1.389   .     S
C7174  C7208   1.531   .     S
C7178  C7179   1.564   .     S
C7178  C7894   1.575   .     S
C7179  C7823   1.420   .     S
H7180  C8108   1.111   .     S
C7182  H7190   1.150   .     S
C7183  C1693   1.411   1_655 S
C7189  C7231   1.421   .     S
H7193  C1710   1.086   1_655 S
C7195  C1742   1.537   1_655 S
C7195  C1634   1.526   1_655 S
C7198  C7215   1.564   .     S
C7198  C7213   1.497   .     S
C7199  H7200   1.085   .     S
C7201  C7814   1.472   .     S
C7201  H7203   1.097   .     S
C7202  C7209   1.378   .     S
H7206  C1634   1.120   1_655 S
C7208  C7806   1.535   .     S
O7211  C7918   1.413   .     S
O7211  C7750   1.351   .     S
C7213  H7219   1.077   .     S
C7215  C7273   1.572   .     S
H7216  C7796   1.104   .     S
H7220  C8108   1.145   .     S
C7221  C7369   1.361   .     S
C7221  C7348   1.360   .     S
C7222  C7370   1.398   .     S
C7222  O7255   1.367   .     S
C7222  C7309   1.399   .     S
C7223  C7349   1.396   .     S
C7223  C7389   1.400   .     S
C7224  H7332   1.103   .     S
C7224  C7318   1.356   .     S
C7224  C7262   1.416   .     S
C7225  C7285   1.418   .     S
C7225  N7232   1.176   .     S
H7226  C7291   1.076   .     S
C7227  C8072   1.489   .     S
C7227  C7326   1.396   .     S
C7227  C8056   1.422   .     S
C7228  H7508   1.095   .     S
C7228  C7358   1.407   .     S
C7228  C7269   1.378   .     S
H7229  C7319   1.131   .     S
C7230  N7322   1.171   .     S
C7230  C7308   1.395   .     S
C7231  O7233   1.375   .     S
C7231  C7259   1.442   .     S
O7233  C7333   1.460   .     S
N7234  C7341   1.169   .     S
C7235  H7313   1.124   .     S
C7235  H7297   1.119   .     S
C7235  H1900   1.150   1_655 S
C7235  C1917   1.514   1_655 S
C7236  C7285   1.440   .     S
C7236  C7340   1.392   .     S
C7236  O7264   1.405   .     S
H7237  C7238   1.081   .     S
C7238  H7338   1.098   .     S
C7238  C7310   1.504   .     S
C7238  H7320   1.104   .     S
H7239  C7356   1.122   .     S
C7240  C7335   1.503   .     S
C7240  C7321   1.552   .     S
C7240  C7280   1.547   .     S
C7240  C7367   1.560   .     S
C7241  O7254   1.426   .     S
C7241  C7328   1.428   .     S
C7241  C7326   1.415   .     S
C7242  H7379   1.111   .     S
C7242  C7328   1.375   .     S
C7242  C8056   1.351   .     S
O7243  C7361   1.362   .     S
O7243  C7328   1.305   .     S
C7244  C7283   1.404   .     S
C7244  O7296   1.415   .     S
C7244  C7253   1.376   .     S
C7245  C7341   1.395   .     S
H7246  C7351   1.129   .     S
H7247  O7385   0.981   .     S
C7248  H7396   1.075   .     S
C7248  C7330   1.378   .     S
H7249  C7334   1.091   .     S
H7250  C7280   1.083   .     S
H7251  C7319   1.141   .     S
C7253  C7349   1.344   .     S
C7253  H7372   1.073   .     S
O7254  C7344   1.379   .     S
O7255  C7269   1.385   .     S
H7256  C7366   1.095   .     S
C7257  H7314   1.079   .     S
H7258  C7321   1.074   .     S
C7259  C7345   1.376   .     S
C7259  O7263   1.436   .     S
H7260  C7357   1.160   .     S
C7261  C7287   1.497   .     S
C7261  C7321   1.573   .     S
C7261  C7318   1.562   .     S
C7261  C7319   1.626   .     S
C7262  C7348   1.459   .     S
C7262  O1806   1.398   1_655 S
O7263  C7268   1.386   .     S
O7264  C7281   1.411   .     S
H7265  C7375   1.075   .     S
H7266  C7334   1.064   .     S
H7267  C7362   1.084   .     S
C7268  C7333   1.370   .     S
C7268  C7274   1.443   .     S
C7269  C7302   1.384   .     S
H7270  C7300   1.114   .     S
C7271  C7310   1.479   .     S
C7271  C7358   1.392   .     S
C7271  C7362   1.398   .     S
H7272  C7277   1.106   .     S
C7273  C7330   1.486   .     S
C7273  C7354   1.494   .     S
C7274  C7293   1.470   .     S
C7274  C7344   1.371   .     S
H7275  C7292   1.103   .     S
H7276  C7277   1.120   .     S
C7277  H7591   1.112   .     S
C7277  C7364   1.551   .     S
H7278  C7315   1.085   .     S
H7279  C7280   1.085   .     S
C7280  H7355   1.172   .     S
C7281  C7331   1.502   .     S
C7281  C7315   1.352   .     S
H7282  C7387   1.104   .     S
C7283  C7389   1.375   .     S
C7283  O7385   1.402   .     S
C7284  H7311   1.102   .     S
C7284  C7301   1.462   .     S
C7284  H7343   1.103   .     S
H7286  C7357   1.112   .     S
C7287  C7315   1.389   .     S
C7287  C7335   1.364   .     S
C7288  C7325   1.421   .     S
C7288  O1839   1.359   1_655 S
C7288  C1904   1.437   1_655 S
H7289  C7326   1.083   .     S
C7290  C7370   1.465   .     S
C7290  N7518   1.139   .     S
C7291  H7384   1.136   .     S
C7291  C7365   1.550   .     S
C7291  H7374   1.084   .     S
C7292  H7378   1.153   .     S
C7292  H7324   1.102   .     S
C7293  N7307   1.146   .     S
N7294  C7353   1.161   .     S
H7295  C7395   1.116   .     S
O7296  H7312   0.944   .     S
H7298  C7402   1.127   .     S
O7299  C7340   1.396   .     S
O7299  C7331   1.403   .     S
C7300  H7392   1.079   .     S
C7300  C1917   1.498   1_655 S
C7301  C7369   1.553   .     S
C7301  C7319   1.507   .     S
C7302  O7336   1.399   .     S
C7302  C7362   1.413   .     S
H7303  C7375   1.136   .     S
H7304  C7350   1.076   .     S
H7305  C7321   1.085   .     S
C7306  C7333   1.353   .     S
C7306  C7342   1.376   .     S
C7306  C7361   1.431   .     S
C7309  C7325   1.396   .     S
C7309  O7336   1.401   .     S
C7310  C7334   1.514   .     S
C7310  C7357   1.544   .     S
H7316  C7376   1.105   .     S
C7317  C7352   1.399   .     S
C7317  N7337   1.146   .     S
C7318  C7369   1.390   .     S
C7323  C7376   1.538   .     S
C7323  C7334   1.522   .     S
C7323  C7358   1.563   .     S
C7323  C7479   1.524   .     S
C7325  C7359   1.404   .     S
H7327  C7393   1.106   .     S
N7329  C7359   1.152   .     S
C7331  C7351   1.367   .     S
C7335  C7351   1.368   .     S
H7339  C7367   1.089   .     S
C7340  C7352   1.409   .     S
C7342  N7399   1.180   .     S
C7344  C7361   1.459   .     S
C7345  C7354   1.379   .     S
C7345  H7371   1.143   .     S
H7346  C7367   1.071   .     S
H7347  C7375   1.094   .     S
C7348  O1646   1.370   1_655 S
C7349  C7364   1.474   .     S
C7350  H7382   1.145   .     S
C7350  H7386   1.165   .     S
C7350  C7408   1.487   .     S
C7352  C7380   1.364   .     S
C7353  C7381   1.357   .     S
C7356  H7412   1.133   .     S
C7356  C7364   1.573   .     S
C7357  H7363   1.138   .     S
H7360  C7393   1.034   .     S
C7364  C7375   1.447   .     S
C7365  C7366   1.530   .     S
C7365  C8069   1.545   .     S
C7365  C8113   1.541   .     S
C7366  H7373   1.086   .     S
C7366  H7939   1.109   .     S
C7367  H7368   1.077   .     S
C7370  C1904   1.365   1_655 S
C7376  H7397   1.054   .     S
C7376  C7459   1.503   .     S
C7381  C7602   1.416   .     S
H7383  C7387   1.090   .     S
C7387  C7398   1.540   .     S
H7390  C8113   1.138   .     S
H7391  C8113   1.132   .     S
C7393  H8081   1.099   .     S
C7393  C7953   1.523   .     S
C7398  C8110   1.569   .     S
H7400  C8108   1.077   .     S
H7401  C7402   1.132   .     S
C7402  C7953   1.514   .     S
C7402  C8072   1.490   .     S
C7403  C7545   1.379   .     S
C7403  O7598   1.364   .     S
C7403  C7490   1.368   .     S
C7404  H7430   1.092   .     S
C7404  C7546   1.383   .     S
C7404  C7544   1.444   .     S
C7405  O7458   1.404   .     S
C7405  C7431   1.384   .     S
C7405  C7523   1.400   .     S
H7406  C7538   1.158   .     S
C7407  C7538   1.520   .     S
C7407  C7542   1.473   .     S
C7407  C7547   1.541   .     S
C7407  C7432   1.571   .     S
C7408  C7574   1.507   .     S
C7408  C7501   1.554   .     S
C7408  C7410   1.560   .     S
C7409  C7464   1.413   .     S
C7409  N7555   1.161   .     S
C7410  H7492   1.106   .     S
C7410  H7509   1.092   .     S
C7410  C7530   1.529   .     S
C7411  C7553   1.589   .     S
C7411  C7558   1.476   .     S
C7411  C7428   1.511   .     S
C7411  C7480   1.557   .     S
N7413  C7416   1.166   .     S
C7414  C7436   1.373   .     S
C7414  H7540   1.072   .     S
C7414  C7578   1.370   .     S
O7415  C7504   1.345   .     S
O7415  C7550   1.409   .     S
C7416  C7457   1.432   .     S
O7417  C7541   1.378   .     S
O7417  C7562   1.454   .     S
N7418  C7535   1.156   .     S
C7419  C7435   1.351   .     S
C7419  H7489   1.092   .     S
C7419  C7501   1.369   .     S
H7420  C7538   1.114   .     S
C7421  C7567   1.356   .     S
C7421  C7566   1.422   .     S
C7421  C7436   1.422   .     S
C7422  C7568   1.371   .     S
C7422  C8125   1.380   .     S
C7422  O7515   1.387   .     S
O7423  C7494   1.428   .     S
O7423  C7471   1.337   .     S
H7424  C7548   1.052   .     S
H7425  C7496   1.092   .     S
H7426  C7558   1.100   .     S
H7427  C7547   1.148   .     S
C7428  H7455   1.143   .     S
C7428  H7500   1.137   .     S
C7428  C7517   1.501   .     S
H7429  C7474   1.082   .     S
C7431  C7559   1.416   .     S
C7431  O7493   1.428   .     S
C7432  H7495   1.121   .     S
C7432  H7481   1.130   .     S
C7432  H7503   1.120   .     S
H7433  C7547   1.102   .     S
N7434  C7491   1.167   .     S
C7435  O7515   1.322   .     S
C7435  C7486   1.449   .     S
C7436  C7588   1.495   .     S
H7437  C7438   1.088   .     S
C7438  C7475   1.498   .     S
C7438  H7576   1.094   .     S
C7438  C6996   1.508   1_556 S
C7439  C7537   1.346   .     S
C7439  C7447   1.421   .     S
C7439  O7449   1.427   .     S
C7440  C7556   1.427   .     S
C7440  N7534   1.168   .     S
C7441  H7512   1.082   .     S
C7441  C7444   1.429   .     S
C7441  C7443   1.413   .     S
O7442  C7447   1.442   .     S
O7442  C7444   1.353   .     S
C7443  C7459   1.514   .     S
C7443  C7479   1.390   .     S
C7444  C7451   1.420   .     S
H7445  C7466   1.065   .     S
C7446  C7582   1.491   .     S
C7446  C7505   1.548   .     S
C7446  C7524   1.517   .     S
C7446  C7463   1.482   .     S
C7447  C7457   1.372   .     S
C7448  C7471   1.363   .     S
C7448  H7573   1.067   .     S
C7448  C7506   1.392   .     S
O7449  C7451   1.386   .     S
C7450  O7532   1.379   .     S
C7450  C7467   1.442   .     S
C7450  C7529   1.373   .     S
C7451  C7452   1.378   .     S
C7452  H7570   1.155   .     S
C7452  C7479   1.386   .     S
H7453  C7505   1.061   .     S
C7454  H7594   1.073   .     S
C7454  C7566   1.540   .     S
C7454  C7588   1.547   .     S
C7456  C7484   1.557   .     S
C7456  H7577   1.128   .     S
C7456  H7564   1.120   .     S
C7456  H7029   1.097   1_556 S
C7457  C7494   1.392   .     S
O7458  C7478   1.376   .     S
C7459  C7497   1.495   .     S
C7459  C7466   1.543   .     S
O7460  C7544   1.402   .     S
O7460  C8182   1.447   .     S
H7461  C7538   1.091   .     S
H7462  C7580   1.142   .     S
C7463  C7475   1.569   .     S
C7463  H7601   1.155   .     S
C7463  H7018   1.102   1_556 S
C7464  C7485   1.412   .     S
C7464  C7010   1.392   1_556 S
C7465  O8187   1.381   .     S
C7465  C7522   1.393   .     S
C7465  C8178   1.416   .     S
C7466  H7592   1.098   .     S
C7466  H7511   1.089   .     S
C7467  C7521   1.390   .     S
C7467  O7516   1.398   .     S
C7468  C7530   1.501   .     S
C7468  C7542   1.348   .     S
C7468  C7496   1.381   .     S
H7469  C7590   1.077   .     S
C7470  O7571   1.407   .     S
C7470  C7550   1.438   .     S
C7471  C7562   1.444   .     S
H7472  C7505   1.103   .     S
H7473  C7524   1.108   .     S
C7474  C7582   1.393   .     S
C7475  C6915   1.524   1_556 S
O7476  C7568   1.400   .     S
O7476  C7486   1.415   .     S
C7478  C7600   1.416   .     S
C7480  H7520   1.100   .     S
C7480  H7528   1.122   .     S
C7480  H7519   1.091   .     S
H7482  C7490   1.092   .     S
C7483  C7517   1.536   .     S
C7483  C7529   1.384   .     S
C7483  C7553   1.414   .     S
C7484  C7548   1.543   .     S
C7484  C6990   1.550   1_556 S
C7484  C6887   1.484   1_556 S
C7485  C7536   1.402   .     S
C7485  O7502   1.399   .     S
C7486  C7552   1.365   .     S
O7487  C7602   1.421   .     S
O7487  C7545   1.418   .     S
H7488  C7580   1.146   .     S
C7490  C7542   1.365   .     S
C7491  C7522   1.411   .     S
O7493  C7600   1.370   .     S
C7494  C7541   1.449   .     S
C7496  C7545   1.405   .     S
C7497  H7595   1.098   .     S
C7497  H7543   1.069   .     S
C7497  H7593   1.130   .     S
N7498  C7514   1.134   .     S
C7499  C7552   1.346   .     S
C7499  C7530   1.543   .     S
C7499  C7501   1.378   .     S
O7502  C7578   1.397   .     S
C7504  C7560   1.415   .     S
C7504  C7527   1.424   .     S
C7505  H7589   1.141   .     S
C7506  C7599   1.397   .     S
C7506  C6881   1.501   1_556 S
C7507  O7532   1.393   .     S
C7507  C7526   1.446   .     S
C7507  C7559   1.345   .     S
H7510  C7558   1.106   .     S
H7513  C7574   1.117   .     S
C7514  C7523   1.351   .     S
O7516  C7526   1.415   .     S
C7517  C7546   1.634   .     S
C7517  C2097   1.491   1_655 S
C7521  C7553   1.397   .     S
C7521  H7525   1.055   .     S
C7522  C7568   1.403   .     S
C7523  C7526   1.406   .     S
C7524  H7569   1.116   .     S
C7524  H7554   1.083   .     S
C7527  C7579   1.404   .     S
C7527  O7571   1.355   .     S
C7529  H1952   1.157   1_655 S
C7530  C7547   1.500   .     S
H7531  C7580   1.106   .     S
H7533  C2106   1.114   1_655 S
C7535  C7537   1.426   .     S
C7536  C7565   1.410   .     S
C7536  O7586   1.385   .     S
C7537  C7541   1.407   .     S
H7539  C7574   1.069   .     S
C7544  C8262   1.425   .     S
C7546  C7572   1.401   .     S
C7548  H7583   1.083   .     S
C7548  H7575   1.109   .     S
H7549  C7552   1.101   .     S
C7550  C7556   1.447   .     S
H7551  C7560   1.113   .     S
H7557  C7558   1.141   .     S
C7559  C7561   1.405   .     S
C7560  C2087   1.378   1_655 S
C7561  N2104   1.159   1_655 S
C7562  C7597   1.399   .     S
C7563  O7586   1.350   .     S
C7563  C7578   1.428   .     S
C7563  C7567   1.410   .     S
C7565  C8268   1.441   .     S
C7565  C6942   1.375   1_556 S
C7566  C7596   1.532   .     S
C7566  C8273   1.580   .     S
C7567  H7585   1.128   .     S
C7572  C8247   1.391   .     S
C7572  C1933   1.503   1_655 S
C7574  H7581   1.083   .     S
C7579  H2108   1.156   1_655 S
C7579  C1928   1.385   1_655 S
C7580  C7588   1.493   .     S
H7587  C6930   1.108   1_556 S
C7590  C7596   1.359   .     S
C7597  C7599   1.387   .     S
C7600  C6338   1.392   1_556 S
H7603  C2106   1.096   1_655 S
H7604  C7672   1.105   .     S
H7605  C7926   1.101   .     S
C7606  C7622   1.525   .     S
C7606  H7678   1.080   .     S
H7607  C7661   1.151   .     S
C7608  C7628   1.507   .     S
C7608  C7649   1.495   .     S
C7608  C7623   1.475   .     S
C7608  C7684   1.486   .     S
C7609  H7626   1.142   .     S
C7609  C7615   1.427   .     S
C7609  C7652   1.356   .     S
C7610  C7650   1.407   .     S
C7610  C7666   1.372   .     S
C7610  O7669   1.393   .     S
C7611  H7647   1.121   .     S
C7611  H7659   1.072   .     S
C7611  C7637   1.560   .     S
C7611  C7688   1.528   .     S
C7612  C7649   1.370   .     S
C7612  H7699   1.094   .     S
C7612  C7677   1.404   .     S
C7613  N7703   1.182   .     S
C7613  C7708   1.420   .     S
H7614  C7702   1.149   .     S
C7615  O7669   1.394   .     S
C7615  C7662   1.425   .     S
H7616  C7683   1.095   .     S
H7617  C7684   1.101   .     S
C7618  H7723   1.118   .     S
C7618  C7686   1.362   .     S
C7618  C5910   1.375   1_565 S
H7619  C7712   1.105   .     S
O7620  C7719   1.388   .     S
O7620  C7727   1.371   .     S
C7621  C7633   1.353   .     S
C7621  H7731   1.067   .     S
C7621  C7664   1.389   .     S
C7622  C7679   1.537   .     S
C7622  C7702   1.551   .     S
C7622  C7926   1.551   .     S
C7623  H7624   1.098   .     S
C7623  H7676   1.130   .     S
C7623  H7692   1.107   .     S
C7625  C7711   1.398   .     S
C7625  C7635   1.408   .     S
C7625  F2274   1.377   1_655 S
C7627  H7670   1.108   .     S
C7627  H7730   1.037   .     S
C7627  C7688   1.489   .     S
C7627  H7722   1.072   .     S
C7628  H7696   1.081   .     S
C7628  H7644   1.096   .     S
C7628  H7709   1.093   .     S
O7629  C7662   1.394   .     S
O7629  C7650   1.390   .     S
H7630  C7674   1.137   .     S
O7631  C7707   1.390   .     S
O7631  C8188   1.403   1_554 S
C7632  H7685   1.136   .     S
C7632  H7700   1.116   .     S
C7632  C7688   1.543   .     S
C7632  H7640   1.114   .     S
C7633  C7715   1.408   .     S
C7633  O5720   1.407   1_565 S
C7634  H7698   1.137   .     S
C7634  C7662   1.383   .     S
C7634  C7639   1.373   .     S
C7635  F7704   1.372   .     S
C7636  C7653   1.493   .     S
C7636  C7672   1.508   .     S
C7636  C7674   1.544   .     S
C7636  C7661   1.511   .     S
C7637  C7639   1.533   .     S
C7637  C7684   1.544   .     S
C7637  C7689   1.568   .     S
C7638  C7664   1.502   .     S
C7638  C7702   1.560   .     S
C7638  C7686   1.498   .     S
C7638  C7674   1.526   .     S
C7639  C7652   1.375   .     S
O7641  C7697   1.400   .     S
O7641  C7720   1.382   .     S
H7642  C7661   1.137   .     S
H7643  C7701   1.119   .     S
H7645  C7661   1.077   .     S
C7648  C7707   1.381   .     S
C7648  C7690   1.480   .     S
C7649  C7689   1.420   .     S
C7650  C7708   1.419   .     S
O7651  C7724   1.364   .     S
O7651  C7874   1.387   .     S
C7652  C7688   1.546   .     S
C7653  C7664   1.436   .     S
C7653  C7701   1.410   .     S
H7654  C7702   1.142   .     S
H7655  C7668   1.089   .     S
O7656  C7705   1.423   .     S
O7656  C7715   1.403   .     S
H7657  C7658   1.113   .     S
C7658  C7721   1.563   .     S
C7658  H7667   1.082   .     S
C7658  H2265   1.037   1_655 S
C7660  O7725   1.375   .     S
C7660  C7707   1.386   .     S
C7663  C7705   1.329   .     S
C7663  C7695   1.354   .     S
C7663  C5748   1.389   1_565 S
H7665  C7672   1.110   .     S
C7666  C8182   1.424   1_554 S
C7668  C7689   1.369   .     S
C7668  C7697   1.422   .     S
C7671  C7718   1.453   .     S
C7672  H7675   1.098   .     S
C7674  H7691   1.042   .     S
C7677  O7680   1.382   .     S
C7677  C7697   1.375   .     S
C7679  C7686   1.449   .     S
C7679  C5827   1.392   1_565 S
O7680  C7726   1.368   .     S
H7681  C7812   1.116   .     S
N7682  C7690   1.164   .     S
C7683  H7710   1.168   .     S
C7683  C7721   1.555   .     S
C7683  H7687   1.103   .     S
C7684  H7694   1.090   .     S
H7693  C2287   1.096   1_655 S
C7695  N7716   1.137   .     S
C7701  C7715   1.395   .     S
C7705  C5642   1.470   1_565 S
O7706  C7728   1.341   .     S
O7706  C7892   1.420   .     S
C7708  C8145   1.358   1_554 S
C7711  C7717   1.399   .     S
C7712  C7814   1.508   .     S
H7714  C7867   1.097   .     S
C7717  N2262   1.221   1_655 S
C7718  C7728   1.410   .     S
C7718  C7719   1.378   .     S
C7719  C7724   1.355   .     S
C7720  C7726   1.413   .     S
C7720  C2216   1.405   1_655 S
C7721  C2287   1.545   1_655 S
C7721  C2129   1.530   1_655 S
C7724  C7786   1.424   .     S
O7725  C8271   1.367   1_554 S
C7726  C2267   1.401   1_655 S
C7727  C7874   1.416   .     S
C7727  C7812   1.379   .     S
C7728  C7868   1.376   .     S
H7729  C2287   1.129   1_655 S
H7732  C8193   1.177   1_554 S
C7733  H7871   1.124   .     S
C7733  H7900   1.120   .     S
C7733  C2416   1.560   1_655 S
C7733  H2293   1.074   1_655 S
O7734  C7819   1.427   .     S
O7734  C7781   1.416   .     S
O7735  C7870   1.393   .     S
O7735  C7740   1.390   .     S
C7736  H7801   1.066   .     S
C7736  H7853   1.099   .     S
C7736  C7800   1.489   .     S
C7736  C7770   1.552   .     S
H7737  C7807   1.162   .     S
C7738  C7957   1.391   .     S
C7738  H7793   1.099   .     S
C7738  C7797   1.385   .     S
O7739  C7767   1.358   .     S
O7739  C7877   1.420   .     S
C7740  C7933   1.404   .     S
C7741  C7820   1.371   .     S
C7741  C7858   1.376   .     S
C7741  H7783   1.052   .     S
O7742  C7917   1.393   .     S
H7743  C7777   1.082   .     S
H7744  C7790   1.072   .     S
C7745  H7778   1.093   .     S
C7745  C7769   1.494   .     S
C7745  H7861   1.095   .     S
C7745  H7852   1.070   .     S
H7746  C7857   1.086   .     S
H7747  C7791   1.150   .     S
H7748  C7784   1.116   .     S
H7749  C7806   1.063   .     S
C7750  C7767   1.408   .     S
H7751  C7829   1.082   .     S
C7752  C7889   1.440   .     S
C7752  C7850   1.419   .     S
C7752  C7917   1.351   .     S
H7753  C7901   1.052   .     S
C7754  C7792   1.416   .     S
C7754  C7789   1.352   .     S
C7754  C7911   1.555   .     S
H7755  C7897   1.057   .     S
C7756  C7897   1.360   .     S
C7756  C7862   1.553   .     S
C7757  C7915   1.422   .     S
C7757  C7770   1.492   .     S
C7757  C7808   1.352   .     S
H7758  C7831   1.125   .     S
H7760  C7899   1.120   .     S
C7761  C7821   1.370   .     S
C7761  O7855   1.404   .     S
C7761  C7799   1.373   .     S
C7762  C7769   1.528   .     S
C7762  C7937   1.357   .     S
N7763  C7921   1.182   .     S
N7764  C7889   1.203   .     S
C7765  C7802   1.559   .     S
C7765  H7844   1.117   .     S
C7765  C7907   1.504   .     S
C7765  H7906   1.099   .     S
H7766  C7785   1.116   .     S
C7767  C7777   1.351   .     S
H7768  C7810   1.096   .     S
C7769  C7811   1.539   .     S
C7769  C7829   1.541   .     S
C7770  C7846   1.520   .     S
C7770  C7867   1.595   .     S
H7771  C7807   1.133   .     S
C7772  C7803   1.479   .     S
C7772  H7885   1.111   .     S
C7772  H8031   1.078   .     S
C7772  H7835   1.184   .     S
H7773  C7899   1.076   .     S
H7774  C7829   1.062   .     S
H7775  C7784   1.065   .     S
H7776  C7901   1.040   .     S
C7777  C7823   1.334   .     S
H7779  C7901   1.101   .     S
H7780  C7848   1.132   .     S
C7781  C7891   1.396   .     S
C7781  C7858   1.394   .     S
C7782  C7794   1.393   .     S
C7782  O7836   1.457   .     S
C7782  C7892   1.396   .     S
C7784  H7842   1.092   .     S
C7784  C7862   1.512   .     S
C7785  H7908   1.078   .     S
C7785  H7912   1.149   .     S
C7785  C7884   1.517   .     S
C7786  C7805   1.400   .     S
C7786  C7868   1.394   .     S
H7787  C7875   1.152   .     S
H7788  C7794   1.094   .     S
C7789  C7796   1.415   .     S
C7789  C7803   1.516   .     S
C7790  C7880   1.487   .     S
C7790  H5885   1.108   1_565 S
C7790  H5815   1.130   1_565 S
C7791  C7804   1.380   .     S
C7791  C8109   1.370   .     S
C7792  H7818   1.079   .     S
C7792  C7798   1.411   .     S
C7794  C7846   1.377   .     S
H7795  C7806   1.114   .     S
C7796  C7878   1.399   .     S
C7797  C7804   1.374   .     S
C7797  C7833   1.511   .     S
C7798  C7878   1.409   .     S
C7798  O7855   1.362   .     S
C7799  C7866   1.360   .     S
C7799  C7877   1.432   .     S
C7800  C7922   1.513   .     S
C7800  C7915   1.549   .     S
C7802  C7931   1.532   .     S
C7802  C7857   1.575   .     S
C7802  C7899   1.593   .     S
C7803  C7943   1.514   .     S
C7803  C8108   1.531   .     S
C7804  C7838   1.590   .     S
C7805  N7896   1.167   .     S
C7806  C7862   1.487   .     S
C7807  H7825   1.120   .     S
C7807  C7833   1.454   .     S
C7808  H7815   1.114   .     S
C7808  C7870   1.396   .     S
H7809  C7920   1.104   .     S
C7810  C7881   1.395   .     S
C7810  C7874   1.382   .     S
C7811  H7830   1.082   .     S
C7811  H7849   1.171   .     S
C7811  H7910   1.057   .     S
C7812  C7879   1.405   .     S
H7813  C7890   1.055   .     S
C7814  C7867   1.512   .     S
C7814  C7893   1.584   .     S
H7816  C7865   1.100   .     S
H7817  C7840   1.091   .     S
C7819  C7850   1.379   .     S
C7819  C7854   1.397   .     S
C7820  C7838   1.547   .     S
C7820  C7863   1.393   .     S
C7821  O7847   1.402   .     S
C7821  C7925   1.414   .     S
H7822  C7828   1.085   .     S
C7823  C7872   1.478   .     S
H7824  C7942   1.102   .     S
H7826  C7840   1.096   .     S
H7827  C7891   1.150   .     S
C7828  C7833   1.559   .     S
C7828  H7834   1.128   .     S
C7828  H7832   1.108   .     S
C7831  C7884   1.546   .     S
C7831  C7872   1.555   .     S
C7831  H2440   1.097   1_655 S
C7833  C7840   1.575   .     S
O7836  C7868   1.406   .     S
H7837  C7845   1.144   .     S
C7838  C7840   1.508   .     S
C7838  C7848   1.567   .     S
H7839  C7845   1.080   .     S
O7841  C7858   1.360   .     S
O7841  C7850   1.419   .     S
H7843  C7875   1.081   .     S
C7845  H7859   1.101   .     S
C7845  C7862   1.541   .     S
C7846  C7893   1.405   .     S
O7847  C7878   1.349   .     S
C7848  H7886   1.133   .     S
C7848  C7880   1.514   .     S
H7851  C7926   1.147   .     S
C7854  C8119   1.392   .     S
C7854  C7934   1.385   .     S
H7856  C7857   1.098   .     S
C7857  H7898   1.096   .     S
C7860  C7865   1.552   .     S
C7860  C7901   1.524   .     S
C7860  C7905   1.501   .     S
C7860  C7890   1.528   .     S
C7863  C7891   1.371   .     S
C7863  C7880   1.560   .     S
C7864  H7869   1.131   .     S
C7864  H7882   1.109   .     S
C7864  C8103   1.550   .     S
C7864  C2375   1.565   1_655 S
C7865  H7876   1.086   .     S
C7865  C7907   1.538   .     S
C7866  N7873   1.185   .     S
C7867  H7902   1.117   .     S
C7872  C7894   1.587   .     S
C7872  C7879   1.515   .     S
C7875  C2416   1.545   1_655 S
C7875  C2375   1.514   1_655 S
C7877  C7918   1.382   .     S
C7879  C7881   1.394   .     S
C7880  C5918   1.537   1_565 S
C7881  C7884   1.517   .     S
H7883  C7890   1.098   .     S
C7884  C2353   1.548   1_655 S
H7887  C7930   1.066   .     S
H7888  C7890   1.129   .     S
C7892  C7929   1.401   .     S
C7893  C7929   1.361   .     S
C7894  H7924   1.072   .     S
C7894  H2463   1.111   1_655 S
H7895  C7922   1.098   .     S
C7899  H7936   1.074   .     S
H7903  C2328   1.123   1_655 S
H7904  C7926   1.144   .     S
C7905  C5909   1.425   1_565 S
C7905  C5844   1.424   1_565 S
C7907  C5844   1.528   1_565 S
C7907  C5802   1.516   1_565 S
H7909  C7914   1.147   .     S
C7911  C7943   1.527   .     S
C7911  C8075   1.504   .     S
C7911  C7920   1.587   .     S
H7913  C7950   1.096   .     S
C7914  C2455   1.351   1_655 S
C7914  C5924   1.377   1_565 S
C7917  C7934   1.394   .     S
C7918  C7925   1.337   .     S
H7919  C7920   1.112   .     S
C7920  C7974   1.529   .     S
C7921  C5916   1.437   1_565 S
C7922  H7927   1.064   .     S
H7923  C5909   1.087   1_565 S
H7928  C2353   1.134   1_655 S
C7930  H8107   1.082   .     S
C7930  H8101   1.056   .     S
C7931  C5802   1.390   1_565 S
C7931  C5828   1.394   1_565 S
C7937  C5905   1.390   1_565 S
C7937  H5919   1.065   1_565 S
C7938  C8061   1.327   .     S
C7938  C7948   1.447   .     S
C7938  C7967   1.368   .     S
C7940  C8062   1.417   .     S
C7940  H7982   1.111   .     S
C7940  C8084   1.405   .     S
C7941  C7955   1.531   .     S
C7941  C7985   1.558   .     S
C7941  C8066   1.535   .     S
C7941  C8062   1.511   .     S
C7942  H8089   1.128   .     S
C7942  H7972   1.098   .     S
C7942  C7974   1.557   .     S
C7943  H7991   1.133   .     S
C7943  H7986   1.122   .     S
H7944  C8066   1.090   .     S
H7946  C8038   1.133   .     S
H7947  C8066   1.109   .     S
C7948  C8080   1.408   .     S
C7948  O8090   1.383   .     S
C7949  C8070   1.461   .     S
C7949  C8084   1.454   .     S
C7949  O8085   1.364   .     S
C7950  C8075   1.391   .     S
C7950  C8033   1.368   .     S
H7951  C7997   1.142   .     S
C7952  N8018   1.127   .     S
C7952  C8076   1.430   .     S
C7953  C7997   1.540   .     S
C7953  C7999   1.541   .     S
H7954  C8066   1.083   .     S
C7955  H8022   1.032   .     S
C7955  H8063   1.115   .     S
C7955  C8074   1.595   .     S
H7956  C8095   1.110   .     S
C7957  C8109   1.400   .     S
C7957  O8027   1.420   .     S
O7959  C8046   1.365   .     S
O7959  C7976   1.446   .     S
H7960  C7980   1.135   .     S
H7961  C8077   1.138   .     S
N7962  C8097   1.154   .     S
H7963  C7997   1.126   .     S
H7964  C8038   1.077   .     S
O7965  C8228   1.398   .     S
O7965  C8055   1.390   .     S
C7966  C8053   1.374   .     S
C7966  C8083   1.424   .     S
C7966  O8008   1.409   .     S
C7967  C8034   1.417   .     S
C7967  O7983   1.405   .     S
C7968  C8103   1.566   .     S
C7968  H7995   1.079   .     S
C7968  H8098   1.190   .     S
C7968  H8104   1.068   .     S
C7969  C8074   1.550   .     S
C7969  C8062   1.391   .     S
C7969  C8070   1.364   .     S
H7970  C8030   1.158   .     S
H7971  C8052   1.123   .     S
H7973  C7985   1.114   .     S
C7974  C8052   1.546   .     S
C7974  C8028   1.527   .     S
H7975  C7992   1.091   .     S
C7976  C8228   1.403   .     S
C7976  C8159   1.396   .     S
H7977  C8006   1.133   .     S
C7978  C8074   1.573   .     S
C7978  C8071   1.406   .     S
N7979  C8068   1.184   .     S
C7980  C8048   1.380   .     S
C7980  C8010   1.414   .     S
H7981  C8024   1.138   .     S
O7983  C8109   1.399   .     S
C7985  H7996   1.121   .     S
C7985  H8045   1.122   .     S
H7987  C8011   1.079   .     S
H7988  C8070   1.068   .     S
C7989  H8013   1.084   .     S
C7989  C8115   1.378   .     S
C7989  C8047   1.429   .     S
C7990  C8064   1.556   .     S
C7990  C8113   1.576   .     S
C7990  C8043   1.530   .     S
C7990  C8038   1.563   .     S
C7992  C7999   1.429   .     S
C7992  C8055   1.400   .     S
C7993  C8017   1.565   .     S
C7993  C8056   1.504   .     S
C7993  C8030   1.494   .     S
C7993  C8006   1.523   .     S
O7994  C8010   1.370   .     S
O7994  C509    1.439   1_665 S
C7997  H8037   1.077   .     S
H7998  C8017   1.136   .     S
C7999  C8079   1.362   .     S
H8000  C8016   1.131   .     S
H8001  C8100   1.076   .     S
H8002  C8110   1.102   .     S
C8003  C8024   1.517   .     S
C8003  C8016   1.538   .     S
C8003  C8100   1.542   .     S
C8003  C8048   1.535   .     S
C8004  C8050   1.391   .     S
C8004  O8009   1.425   .     S
C8004  C8051   1.358   .     S
C8005  O8057   1.397   .     S
C8005  C8041   1.468   .     S
C8005  C8077   1.376   .     S
C8006  H8032   1.069   .     S
C8006  C8072   1.518   .     S
C8007  C8064   1.371   .     S
C8007  H8099   1.123   .     S
C8007  C2530   1.378   1_655 S
O8008  C8084   1.353   .     S
O8009  C8041   1.373   .     S
C8010  C506    1.406   1_665 S
C8011  H8091   1.100   .     S
C8011  H8049   1.096   .     S
C8011  C6072   1.504   1_565 S
C8012  C8036   1.387   .     S
C8012  N8054   1.156   .     S
H8014  C8016   1.081   .     S
H8015  C8030   1.063   .     S
C8016  H2471   1.096   1_655 S
C8017  H8094   1.110   .     S
C8017  H8026   1.120   .     S
O8019  C8080   1.389   .     S
O8019  C5996   1.350   1_565 S
H8020  C8071   1.100   .     S
H8021  C8025   1.084   .     S
H8023  C8073   1.128   .     S
C8024  H8086   1.090   .     S
C8024  H8035   1.155   .     S
C8025  C8029   1.392   .     S
C8025  C8028   1.417   .     S
O8027  C8034   1.355   .     S
C8028  C8075   1.374   .     S
C8029  C8033   1.440   .     S
C8029  O8059   1.449   .     S
C8030  H8040   1.108   .     S
C8033  O8039   1.343   .     S
C8034  C8076   1.395   .     S
C8036  C8050   1.398   .     S
C8036  C8067   1.389   .     S
C8038  C8261   1.520   .     S
O8039  C8042   1.425   .     S
C8041  C8082   1.407   .     S
C8042  C8067   1.379   .     S
C8042  C8051   1.386   .     S
C8043  C8069   1.391   .     S
C8043  C8077   1.366   .     S
H8044  C8052   1.119   .     S
C8046  C8055   1.402   .     S
C8046  C8073   1.373   .     S
C8047  C8103   1.543   .     S
C8047  C2542   1.396   1_655 S
C8048  C2489   1.380   1_655 S
C8050  O8057   1.401   .     S
C8051  C8068   1.391   .     S
C8052  H8078   1.143   .     S
C8053  O8085   1.440   .     S
C8053  C8163   1.364   .     S
H8058  C8110   1.153   .     S
O8059  C8067   1.441   .     S
N8060  C8061   1.184   .     S
C8064  C8118   1.412   .     S
C8065  N8116   1.172   .     S
C8065  C8159   1.400   .     S
C8069  C8082   1.377   .     S
C8072  C8079   1.590   .     S
C8073  C8079   1.372   .     S
C8076  C8080   1.361   .     S
C8082  H8106   1.096   .     S
C8083  C8097   1.383   .     S
C8083  C8214   1.372   .     S
H8087  C8095   1.102   .     S
C8088  H8093   1.094   .     S
C8088  H8105   1.118   .     S
C8088  H8112   1.123   .     S
C8088  C5966   1.544   1_565 S
O8090  C8092   1.371   .     S
C8092  C5996   1.492   1_565 S
C8092  C6068   1.443   1_565 S
C8095  C8103   1.487   .     S
C8095  H2486   1.133   1_655 S
C8100  H2626   1.120   1_655 S
C8100  C2600   1.544   1_655 S
H8102  C8110   1.184   .     S
N8114  C2533   1.143   1_655 S
C8115  O8117   1.384   .     S
C8115  C2614   1.413   1_655 S
O8117  C2483   1.392   1_655 S
C8118  C8215   1.346   .     S
C8118  C8261   1.554   .     S
H8120  C8241   1.102   .     S
H8121  C8265   1.062   .     S
C8122  H8183   1.075   .     S
C8122  C8257   1.428   .     S
C8122  C8271   1.364   .     S
C8123  C8256   1.597   .     S
C8123  C8240   1.494   .     S
C8123  C8198   1.519   .     S
C8123  C8204   1.549   .     S
C8124  C8162   1.417   .     S
C8124  C8147   1.386   .     S
C8124  C8228   1.390   .     S
C8125  C8178   1.376   .     S
C8125  C8249   1.443   .     S
C8126  H8199   1.109   .     S
C8126  H8175   1.046   .     S
C8126  C8196   1.561   .     S
C8126  H8169   1.163   .     S
H8127  C8211   1.071   .     S
C8128  C8241   1.398   .     S
H8129  C8227   1.105   .     S
O8130  C8214   1.384   .     S
O8130  C8223   1.372   .     S
C8131  H8186   1.062   .     S
C8131  H8213   1.116   .     S
C8131  H8153   1.065   .     S
C8131  C8261   1.536   .     S
H8132  C8194   1.098   .     S
N8133  C8235   1.145   .     S
H8134  C8251   1.141   .     S
H8135  C8193   1.121   .     S
H8136  C8240   1.135   .     S
H8137  C8254   1.074   .     S
C8138  H8172   1.148   .     S
C8138  H8258   1.091   .     S
C8138  C8270   1.575   .     S
C8139  C8206   1.544   .     S
C8139  C8181   1.520   .     S
C8139  C8144   1.536   .     S
C8139  C8150   1.521   .     S
C8140  C8144   1.355   .     S
C8140  C8210   1.514   .     S
C8140  C8211   1.394   .     S
H8141  C8193   1.088   .     S
C8142  O8239   1.379   .     S
C8142  C8160   1.400   .     S
H8143  C8184   1.094   .     S
C8144  C8148   1.386   .     S
C8145  C8182   1.365   .     S
C8145  O8220   1.418   .     S
C8145  C7708   1.358   1_556 S
H8146  C8227   1.075   .     S
C8147  N8212   1.177   .     S
C8148  C8149   1.405   .     S
C8148  H8151   1.096   .     S
C8149  C8171   1.394   .     S
C8149  O8231   1.365   .     S
C8150  C8155   1.377   .     S
C8150  C8245   1.400   .     S
H8152  C8206   1.117   .     S
H8154  C8198   1.043   .     S
C8155  C8226   1.397   .     S
C8155  C8196   1.539   .     S
N8156  C8268   1.144   .     S
H8157  C8227   1.075   .     S
H8158  C8192   1.136   .     S
C8159  C8244   1.425   .     S
C8160  H8253   1.101   .     S
C8161  C8216   1.363   .     S
C8161  C8188   1.380   .     S
C8161  H8252   1.084   .     S
C8162  O8239   1.410   .     S
C8162  C8244   1.391   .     S
C8163  C8180   1.429   .     S
C8163  C8191   1.365   .     S
H8164  C8167   1.095   .     S
C8165  C8257   1.511   .     S
C8165  C8259   1.566   .     S
C8165  C8198   1.531   .     S
C8165  C8229   1.485   .     S
H8166  C8198   1.139   .     S
C8167  H8205   1.087   .     S
C8167  H8200   1.075   .     S
C8167  C8196   1.528   .     S
H8168  C8204   1.105   .     S
H8170  C8254   1.092   .     S
C8171  C8211   1.383   .     S
C8171  O8187   1.382   .     S
C8173  H8266   1.078   .     S
C8173  H8179   1.069   .     S
C8173  H6161   1.119   1_565 S
C8173  C6072   1.473   1_565 S
C8174  C8227   1.492   .     S
C8174  C8274   1.504   .     S
C8174  C8237   1.549   .     S
C8174  C8265   1.489   .     S
O8176  C8244   1.411   .     S
H8177  C8181   1.101   .     S
C8178  O8231   1.419   .     S
C8180  N8250   1.192   .     S
C8181  C8196   1.527   .     S
C8181  H8197   1.095   .     S
C8182  C7666   1.424   1_556 S
C8184  H8267   1.086   .     S
C8184  H8275   1.128   .     S
C8184  C8261   1.509   .     S
H8185  C8202   1.084   .     S
C8188  C8271   1.449   .     S
C8188  O7631   1.403   1_556 S
H8189  C8237   1.079   .     S
H8190  C8204   1.133   .     S
C8191  C8214   1.432   .     S
C8191  O8208   1.406   .     S
C8192  C8210   1.508   .     S
C8192  H8225   1.165   .     S
C8192  H8236   1.111   .     S
C8193  C6171   1.582   1_565 S
C8193  H7732   1.177   1_556 S
C8194  H8263   1.070   .     S
C8194  H8209   1.089   .     S
C8194  C8210   1.486   .     S
H8195  C8237   1.065   .     S
H8201  C8204   1.092   .     S
C8202  H8233   1.122   .     S
C8202  C8224   1.539   .     S
C8202  H8219   1.072   .     S
H8203  C8273   1.067   .     S
C8206  H8218   1.109   .     S
C8206  C8210   1.577   .     S
C8207  C8223   1.420   .     S
C8207  O8208   1.371   .     S
C8207  C8226   1.398   .     S
C8215  H8234   1.162   .     S
C8215  C2723   1.403   1_655 S
C8216  C8257   1.416   .     S
C8216  C8224   1.488   .     S
H8217  C8237   1.129   .     S
O8220  C8262   1.374   .     S
H8221  C8226   1.104   .     S
H8222  C6056   1.080   1_565 S
C8223  C8245   1.417   .     S
C8224  C8254   1.652   .     S
C8224  C8229   1.509   .     S
C8229  H8230   1.053   .     S
C8229  H8248   1.096   .     S
H8232  C8254   1.097   .     S
C8235  C687    1.428   1_665 S
H8238  C8269   1.063   .     S
C8240  H8242   1.085   .     S
C8240  H8255   1.128   .     S
C8241  C8256   1.369   .     S
H8243  C8245   1.116   .     S
N8246  C8249   1.148   .     S
C8247  C8262   1.386   .     S
C8247  H2787   1.073   1_655 S
C8251  C8259   1.416   .     S
C8256  C8259   1.433   .     S
H8260  C2793   1.085   1_655 S
H8264  C6191   1.102   1_565 S
C8265  C2774   1.558   1_655 S
C8265  H2794   1.176   1_655 S
C8269  C8274   1.377   .     S
C8269  C2674   1.410   1_655 S
C8270  C8273   1.517   .     S
C8271  O7725   1.367   1_556 S
H8272  C8273   1.087   .     S
C8274  C2753   1.413   1_655 S
H8276  C6191   1.028   1_565 S
N8277  C6064   1.185   1_565 S
H8278  C6185   1.102   1_565 S
