data_PIM-1
_audit_creation_date              2020-01-09
_audit_creation_method            'Materials Studio'
_symmetry_space_group_name_H-M    'P1'
_symmetry_Int_Tables_number       1
_symmetry_cell_setting            triclinic
loop_
_symmetry_equiv_pos_as_xyz
  x,y,z
_cell_length_a                    48.4728
_cell_length_b                    48.4728
_cell_length_c                    48.4728
_cell_angle_alpha                 90.0000
_cell_angle_beta                  90.0000
_cell_angle_gamma                 90.0000
loop_
_atom_site_label
_atom_site_type_symbol
_atom_site_fract_x
_atom_site_fract_y
_atom_site_fract_z
_atom_site_U_iso_or_equiv
_atom_site_adp_type
_atom_site_occupancy
O1     O     0.55038   0.46454   0.36892   0.00000  Uiso   1.00
O2     O     0.35345   0.27045   0.37322   0.00000  Uiso   1.00
N3     N     0.42622   0.29782   0.35809   0.00000  Uiso   1.00
C4     C     0.52901   0.46388   0.35022   0.00000  Uiso   1.00
H5     H     0.36078   0.43758   0.24540   0.00000  Uiso   1.00
H6     H     0.49143   0.30851   0.41225   0.00000  Uiso   1.00
H7     H     0.48966   0.28581   0.44964   0.00000  Uiso   1.00
C8     C     0.35983   0.40940   0.33027   0.00000  Uiso   1.00
H9     H     0.44925   0.43072   0.26164   0.00000  Uiso   1.00
C10    C     0.39427   0.34712   0.26296   0.00000  Uiso   1.00
C11    C     0.34276   0.41646   0.30815   0.00000  Uiso   1.00
C12    C     0.23962   0.44056   0.42909   0.00000  Uiso   1.00
H13    H     0.27984   0.41255   0.25163   0.00000  Uiso   1.00
H14    H     0.48158   0.31203   0.34177   0.00000  Uiso   1.00
C15    C     0.37431   0.22899   0.35147   0.00000  Uiso   1.00
C16    C     0.42831   0.39268   0.38872   0.00000  Uiso   1.00
H17    H     0.50601   0.34455   0.37417   0.00000  Uiso   1.00
C18    C     0.40182   0.30629   0.42526   0.00000  Uiso   1.00
C19    C     0.44117   0.43622   0.36732   0.00000  Uiso   1.00
C20    C     0.48972   0.29242   0.39723   0.00000  Uiso   1.00
C21    C     0.38518   0.23373   0.43997   0.00000  Uiso   1.00
C22    C     0.49902   0.26606   0.44270   0.00000  Uiso   1.00
C23    C     0.33777   0.44266   0.35778   0.00000  Uiso   1.00
C24    C     0.24529   0.22855   0.25890   0.00000  Uiso   1.00
C25    C     0.32527   0.23684   0.34410   0.00000  Uiso   1.00
H26    H     0.52035   0.26659   0.45267   0.00000  Uiso   1.00
H27    H     0.43516   0.37464   0.29087   0.00000  Uiso   1.00
C28    C     0.48694   0.46032   0.31126   0.00000  Uiso   1.00
C29    C     0.48109   0.45740   0.33964   0.00000  Uiso   1.00
C30    C     0.30324   0.27401   0.36885   0.00000  Uiso   1.00
N31    N     0.35471   0.43857   0.42730   0.00000  Uiso   1.00
C32    C     0.41924   0.30802   0.37826   0.00000  Uiso   1.00
C33    C     0.52182   0.32876   0.37954   0.00000  Uiso   1.00
H34    H     0.24328   0.31938   0.42252   0.00000  Uiso   1.00
H35    H     0.32258   0.35846   0.44624   0.00000  Uiso   1.00
C36    C     0.32884   0.28364   0.37856   0.00000  Uiso   1.00
C37    C     0.53260   0.27961   0.37876   0.00000  Uiso   1.00
C38    C     0.37839   0.38765   0.32755   0.00000  Uiso   1.00
H39    H     0.39320   0.38366   0.34324   0.00000  Uiso   1.00
H40    H     0.41828   0.45782   0.31065   0.00000  Uiso   1.00
O41    O     0.32256   0.43673   0.31012   0.00000  Uiso   1.00
C42    C     0.38025   0.37326   0.25290   0.00000  Uiso   1.00
C43    C     0.25734   0.41051   0.24692   0.00000  Uiso   1.00
C44    C     0.30719   0.32557   0.39572   0.00000  Uiso   1.00
C45    C     0.29436   0.27568   0.46779   0.00000  Uiso   1.00
C46    C     0.38188   0.37535   0.30218   0.00000  Uiso   1.00
C47    C     0.39169   0.26135   0.44382   0.00000  Uiso   1.00
C48    C     0.47595   0.22674   0.38070   0.00000  Uiso   1.00
H49    H     0.36707   0.32004   0.30410   0.00000  Uiso   1.00
C50    C     0.45038   0.45656   0.34414   0.00000  Uiso   1.00
H51    H     0.44402   0.33873   0.29222   0.00000  Uiso   1.00
H52    H     0.38764   0.22452   0.41868   0.00000  Uiso   1.00
C53    C     0.49926   0.26557   0.41167   0.00000  Uiso   1.00
H54    H     0.54081   0.33539   0.36727   0.00000  Uiso   1.00
C55    C     0.35069   0.24596   0.35585   0.00000  Uiso   1.00
C56    C     0.52848   0.26343   0.40152   0.00000  Uiso   1.00
C57    C     0.29353   0.46443   0.22477   0.00000  Uiso   1.00
C58    C     0.22346   0.37117   0.24540   0.00000  Uiso   1.00
C59    C     0.25060   0.26819   0.44655   0.00000  Uiso   1.00
C60    C     0.27954   0.28952   0.37561   0.00000  Uiso   1.00
H61    H     0.38184   0.32975   0.25774   0.00000  Uiso   1.00
H62    H     0.41498   0.34331   0.25475   0.00000  Uiso   1.00
H63    H     0.43393   0.35616   0.32155   0.00000  Uiso   1.00
C64    C     0.36762   0.38527   0.27930   0.00000  Uiso   1.00
O65    O     0.30095   0.25170   0.35068   0.00000  Uiso   1.00
O66    O     0.52125   0.25196   0.23429   0.00000  Uiso   1.00
H67    H     0.27364   0.33033   0.33043   0.00000  Uiso   1.00
C68    C     0.27212   0.35996   0.25392   0.00000  Uiso   1.00
H69    H     0.33407   0.41068   0.26523   0.00000  Uiso   1.00
H70    H     0.49835   0.45336   0.37942   0.00000  Uiso   1.00
H71    H     0.41250   0.44457   0.43135   0.00000  Uiso   1.00
C72    C     0.44205   0.40734   0.36825   0.00000  Uiso   1.00
C73    C     0.53205   0.22348   0.27245   0.00000  Uiso   1.00
C74    C     0.34721   0.40535   0.28281   0.00000  Uiso   1.00
C75    C     0.41332   0.34976   0.40682   0.00000  Uiso   1.00
C76    C     0.30193   0.35845   0.43505   0.00000  Uiso   1.00
H77    H     0.38550   0.32759   0.33332   0.00000  Uiso   1.00
C78    C     0.51000   0.29907   0.37360   0.00000  Uiso   1.00
C79    C     0.28062   0.26490   0.25501   0.00000  Uiso   1.00
H80    H     0.44941   0.39630   0.34865   0.00000  Uiso   1.00
C81    C     0.49720   0.29642   0.34544   0.00000  Uiso   1.00
O82    O     0.25166   0.29421   0.29707   0.00000  Uiso   1.00
O83    O     0.35768   0.42138   0.35558   0.00000  Uiso   1.00
H84    H     0.44296   0.26408   0.44891   0.00000  Uiso   1.00
H85    H     0.25964   0.27919   0.36881   0.00000  Uiso   1.00
C86    C     0.33445   0.45714   0.38215   0.00000  Uiso   1.00
C87    C     0.23858   0.33713   0.40919   0.00000  Uiso   1.00
H88    H     0.43647   0.42480   0.31422   0.00000  Uiso   1.00
H89    H     0.51417   0.29836   0.33083   0.00000  Uiso   1.00
O90    O     0.42644   0.36455   0.38524   0.00000  Uiso   1.00
H91    H     0.47922   0.44811   0.25291   0.00000  Uiso   1.00
C92    C     0.27541   0.23186   0.41182   0.00000  Uiso   1.00
C93    C     0.23828   0.30464   0.31892   0.00000  Uiso   1.00
O94    O     0.29339   0.24779   0.42902   0.00000  Uiso   1.00
C95    C     0.32121   0.45070   0.33530   0.00000  Uiso   1.00
H96    H     0.29232   0.37843   0.44142   0.00000  Uiso   1.00
C97    C     0.46076   0.45837   0.29340   0.00000  Uiso   1.00
C98    C     0.27932   0.36419   0.38689   0.00000  Uiso   1.00
H99    H     0.28774   0.36798   0.36627   0.00000  Uiso   1.00
C100   C     0.46878   0.43778   0.27037   0.00000  Uiso   1.00
H101   H     0.32723   0.39128   0.39802   0.00000  Uiso   1.00
H102   H     0.35100   0.36486   0.40201   0.00000  Uiso   1.00
C103   C     0.33046   0.36976   0.39357   0.00000  Uiso   1.00
C104   C     0.40063   0.34744   0.45590   0.00000  Uiso   1.00
C105   C     0.38781   0.32417   0.31027   0.00000  Uiso   1.00
C106   C     0.41822   0.40718   0.41128   0.00000  Uiso   1.00
H107   H     0.33462   0.36893   0.37159   0.00000  Uiso   1.00
O108   O     0.40078   0.27743   0.42158   0.00000  Uiso   1.00
C109   C     0.39818   0.34925   0.29389   0.00000  Uiso   1.00
C110   C     0.30492   0.35608   0.40457   0.00000  Uiso   1.00
C111   C     0.42895   0.35458   0.29929   0.00000  Uiso   1.00
C112   C     0.25478   0.25466   0.26795   0.00000  Uiso   1.00
H113   H     0.24798   0.41495   0.26763   0.00000  Uiso   1.00
H114   H     0.40116   0.30678   0.30663   0.00000  Uiso   1.00
C115   C     0.40770   0.36298   0.43240   0.00000  Uiso   1.00
H116   H     0.41188   0.40488   0.25389   0.00000  Uiso   1.00
C117   C     0.47447   0.22420   0.43043   0.00000  Uiso   1.00
C118   C     0.41961   0.43569   0.41289   0.00000  Uiso   1.00
H119   H     0.46776   0.29137   0.38976   0.00000  Uiso   1.00
H120   H     0.35053   0.31657   0.39654   0.00000  Uiso   1.00
H121   H     0.52797   0.33217   0.40062   0.00000  Uiso   1.00
C122   C     0.42857   0.45046   0.38988   0.00000  Uiso   1.00
C123   C     0.48231   0.23810   0.40585   0.00000  Uiso   1.00
C124   C     0.33009   0.30900   0.39223   0.00000  Uiso   1.00
C125   C     0.41084   0.32102   0.40311   0.00000  Uiso   1.00
C126   C     0.28173   0.31566   0.38733   0.00000  Uiso   1.00
H127   H     0.48514   0.27596   0.34419   0.00000  Uiso   1.00
H128   H     0.24130   0.35518   0.41975   0.00000  Uiso   1.00
H129   H     0.26748   0.33922   0.24503   0.00000  Uiso   1.00
C130   C     0.27886   0.26336   0.44745   0.00000  Uiso   1.00
C131   C     0.39947   0.23664   0.36342   0.00000  Uiso   1.00
H132   H     0.28922   0.34279   0.44469   0.00000  Uiso   1.00
H133   H     0.45377   0.32347   0.22954   0.00000  Uiso   1.00
O134   O     0.23344   0.25678   0.42690   0.00000  Uiso   1.00
C135   C     0.39828   0.31834   0.45217   0.00000  Uiso   1.00
N136   N     0.29986   0.27278   0.24461   0.00000  Uiso   1.00
C137   C     0.25227   0.32223   0.33564   0.00000  Uiso   1.00
O138   O     0.53424   0.34355   0.46900   0.00000  Uiso   1.00
C139   C     0.48132   0.24253   0.45476   0.00000  Uiso   1.00
H140   H     0.31707   0.26935   0.46903   0.00000  Uiso   1.00
C141   C     0.24086   0.26922   0.28803   0.00000  Uiso   1.00
C142   C     0.25918   0.33756   0.38545   0.00000  Uiso   1.00
C143   C     0.24597   0.23771   0.40920   0.00000  Uiso   1.00
N144   N     0.25845   0.43578   0.41462   0.00000  Uiso   1.00
H145   H     0.48119   0.41943   0.27949   0.00000  Uiso   1.00
C146   C     0.24178   0.33200   0.35936   0.00000  Uiso   1.00
C147   C     0.54934   0.24701   0.41072   0.00000  Uiso   1.00
H148   H     0.29329   0.36459   0.24910   0.00000  Uiso   1.00
C149   C     0.23817   0.28340   0.46767   0.00000  Uiso   1.00
H150   H     0.26581   0.35960   0.27625   0.00000  Uiso   1.00
C151   C     0.34616   0.44748   0.40736   0.00000  Uiso   1.00
C152   C     0.51945   0.22702   0.24662   0.00000  Uiso   1.00
C153   C     0.25294   0.38071   0.23884   0.00000  Uiso   1.00
C154   C     0.45510   0.25473   0.46589   0.00000  Uiso   1.00
O155   O     0.40735   0.39218   0.43331   0.00000  Uiso   1.00
C156   C     0.26598   0.45860   0.22662   0.00000  Uiso   1.00
H157   H     0.41615   0.38108   0.22797   0.00000  Uiso   1.00
H158   H     0.34217   0.32682   0.23441   0.00000  Uiso   1.00
H159   H     0.48289   0.23835   0.36114   0.00000  Uiso   1.00
C160   C     0.54629   0.24625   0.28494   0.00000  Uiso   1.00
C161   C     0.40033   0.39324   0.23956   0.00000  Uiso   1.00
C162   C     0.25184   0.43140   0.22361   0.00000  Uiso   1.00
H163   H     0.26730   0.38251   0.39564   0.00000  Uiso   1.00
H164   H     0.54399   0.23392   0.42779   0.00000  Uiso   1.00
C165   C     0.36054   0.36795   0.22863   0.00000  Uiso   1.00
H166   H     0.39394   0.45072   0.23173   0.00000  Uiso   1.00
N167   N     0.42106   0.24085   0.37415   0.00000  Uiso   1.00
N168   N     0.46171   0.35260   0.46703   0.00000  Uiso   1.00
O169   O     0.54549   0.39057   0.24190   0.00000  Uiso   1.00
N170   N     0.47549   0.38583   0.23464   0.00000  Uiso   1.00
C171   C     0.50275   0.45832   0.35844   0.00000  Uiso   1.00
O172   O     0.22274   0.39992   0.46289   0.00000  Uiso   1.00
C173   C     0.43951   0.44800   0.31447   0.00000  Uiso   1.00
C174   C     0.53434   0.46741   0.32139   0.00000  Uiso   1.00
H175   H     0.24886   0.35493   0.46963   0.00000  Uiso   1.00
C176   C     0.51378   0.46448   0.30166   0.00000  Uiso   1.00
H177   H     0.22599   0.45051   0.27821   0.00000  Uiso   1.00
C178   C     0.37578   0.43819   0.22745   0.00000  Uiso   1.00
C179   C     0.38721   0.27420   0.46999   0.00000  Uiso   1.00
H180   H     0.55244   0.36358   0.42631   0.00000  Uiso   1.00
H181   H     0.52017   0.46784   0.28151   0.00000  Uiso   1.00
C182   C     0.23084   0.22274   0.38978   0.00000  Uiso   1.00
C183   C     0.35565   0.38455   0.58405   0.00000  Uiso   1.00
C184   C     0.32920   0.37876   0.62767   0.00000  Uiso   1.00
C185   C     0.50917   0.22694   0.56414   0.00000  Uiso   1.00
C186   C     0.49613   0.22551   0.47684   0.00000  Uiso   1.00
H187   H     0.38422   0.26762   0.67631   0.00000  Uiso   1.00
C188   C     0.34502   0.40704   0.56833   0.00000  Uiso   1.00
C189   C     0.30224   0.43730   0.69593   0.00000  Uiso   1.00
H190   H     0.43252   0.29145   0.52022   0.00000  Uiso   1.00
H191   H     0.50261   0.23930   0.49258   0.00000  Uiso   1.00
C192   C     0.45124   0.25866   0.60194   0.00000  Uiso   1.00
O193   O     0.26258   0.27199   0.63483   0.00000  Uiso   1.00
C194   C     0.50643   0.32542   0.55058   0.00000  Uiso   1.00
H195   H     0.52513   0.27585   0.61041   0.00000  Uiso   1.00
C196   C     0.26675   0.29512   0.67855   0.00000  Uiso   1.00
H197   H     0.43798   0.25318   0.71538   0.00000  Uiso   1.00
C198   C     0.28328   0.30648   0.70024   0.00000  Uiso   1.00
H199   H     0.27404   0.32971   0.54671   0.00000  Uiso   1.00
C200   C     0.51790   0.26106   0.62495   0.00000  Uiso   1.00
C201   C     0.44021   0.26837   0.55255   0.00000  Uiso   1.00
H202   H     0.29546   0.39483   0.67774   0.00000  Uiso   1.00
C203   C     0.31963   0.32462   0.50447   0.00000  Uiso   1.00
C204   C     0.26172   0.23914   0.59718   0.00000  Uiso   1.00
H205   H     0.54665   0.25042   0.56582   0.00000  Uiso   1.00
H206   H     0.31099   0.34290   0.49280   0.00000  Uiso   1.00
N207   N     0.46718   0.45887   0.50879   0.00000  Uiso   1.00
H208   H     0.30951   0.33098   0.59620   0.00000  Uiso   1.00
C209   C     0.52542   0.45219   0.60291   0.00000  Uiso   1.00
H210   H     0.39538   0.25444   0.59350   0.00000  Uiso   1.00
C211   C     0.27228   0.42468   0.65751   0.00000  Uiso   1.00
C212   C     0.39792   0.45245   0.52067   0.00000  Uiso   1.00
C213   C     0.23307   0.24302   0.59460   0.00000  Uiso   1.00
O214   O     0.40925   0.43051   0.53751   0.00000  Uiso   1.00
C215   C     0.39212   0.35805   0.60444   0.00000  Uiso   1.00
O216   O     0.42386   0.27742   0.53134   0.00000  Uiso   1.00
C217   C     0.42755   0.46698   0.68502   0.00000  Uiso   1.00
C218   C     0.48489   0.42023   0.59211   0.00000  Uiso   1.00
C219   C     0.53358   0.24132   0.55059   0.00000  Uiso   1.00
O220   O     0.35089   0.44108   0.53438   0.00000  Uiso   1.00
H221   H     0.39792   0.31341   0.65405   0.00000  Uiso   1.00
C222   C     0.52480   0.33598   0.49486   0.00000  Uiso   1.00
H223   H     0.53759   0.25613   0.63778   0.00000  Uiso   1.00
C224   C     0.42461   0.46169   0.71605   0.00000  Uiso   1.00
C225   C     0.50026   0.23652   0.61249   0.00000  Uiso   1.00
C226   C     0.34665   0.23092   0.59825   0.00000  Uiso   1.00
C227   C     0.30618   0.25081   0.61670   0.00000  Uiso   1.00
C228   C     0.31738   0.34999   0.58667   0.00000  Uiso   1.00
C229   C     0.27900   0.28132   0.65661   0.00000  Uiso   1.00
C230   C     0.31180   0.30357   0.69940   0.00000  Uiso   1.00
H231   H     0.41144   0.34479   0.55245   0.00000  Uiso   1.00
C232   C     0.54322   0.32856   0.51540   0.00000  Uiso   1.00
H233   H     0.52336   0.25837   0.53929   0.00000  Uiso   1.00
C234   C     0.24445   0.31327   0.51285   0.00000  Uiso   1.00
C235   C     0.34232   0.36361   0.60224   0.00000  Uiso   1.00
H236   H     0.44803   0.42633   0.67616   0.00000  Uiso   1.00
C237   C     0.44393   0.46309   0.50807   0.00000  Uiso   1.00
H238   H     0.48447   0.23346   0.65732   0.00000  Uiso   1.00
H239   H     0.41301   0.43039   0.66625   0.00000  Uiso   1.00
H240   H     0.42965   0.31250   0.67046   0.00000  Uiso   1.00
H241   H     0.45996   0.27131   0.48194   0.00000  Uiso   1.00
H242   H     0.34751   0.34653   0.69989   0.00000  Uiso   1.00
H243   H     0.52901   0.42281   0.64615   0.00000  Uiso   1.00
H244   H     0.41088   0.38916   0.63061   0.00000  Uiso   1.00
C245   C     0.40119   0.39818   0.57153   0.00000  Uiso   1.00
C246   C     0.50992   0.41720   0.63526   0.00000  Uiso   1.00
C247   C     0.41356   0.32730   0.66279   0.00000  Uiso   1.00
C248   C     0.43821   0.33926   0.61750   0.00000  Uiso   1.00
C249   C     0.42435   0.34869   0.64435   0.00000  Uiso   1.00
C250   C     0.39026   0.41764   0.55280   0.00000  Uiso   1.00
H251   H     0.36330   0.32751   0.62549   0.00000  Uiso   1.00
C252   C     0.44614   0.36604   0.66195   0.00000  Uiso   1.00
H253   H     0.42352   0.39241   0.57403   0.00000  Uiso   1.00
C254   C     0.45348   0.33261   0.56120   0.00000  Uiso   1.00
C255   C     0.40138   0.36947   0.63304   0.00000  Uiso   1.00
C256   C     0.47181   0.32636   0.58311   0.00000  Uiso   1.00
C257   C     0.34655   0.41551   0.71107   0.00000  Uiso   1.00
C258   C     0.41606   0.24304   0.71844   0.00000  Uiso   1.00
C259   C     0.38383   0.38126   0.58629   0.00000  Uiso   1.00
H260   H     0.31399   0.29299   0.55503   0.00000  Uiso   1.00
C261   C     0.27625   0.25438   0.61648   0.00000  Uiso   1.00
H262   H     0.43988   0.44632   0.64796   0.00000  Uiso   1.00
H263   H     0.52424   0.40074   0.56830   0.00000  Uiso   1.00
N264   N     0.37146   0.22868   0.59876   0.00000  Uiso   1.00
H265   H     0.54642   0.24919   0.49402   0.00000  Uiso   1.00
H266   H     0.38880   0.24115   0.65136   0.00000  Uiso   1.00
C267   C     0.38038   0.22850   0.48992   0.00000  Uiso   1.00
H268   H     0.38465   0.37103   0.65020   0.00000  Uiso   1.00
C269   C     0.49726   0.33626   0.50258   0.00000  Uiso   1.00
H270   H     0.34292   0.38996   0.64268   0.00000  Uiso   1.00
H271   H     0.43514   0.37468   0.67879   0.00000  Uiso   1.00
C272   C     0.43267   0.44160   0.66804   0.00000  Uiso   1.00
H273   H     0.31749   0.36420   0.64007   0.00000  Uiso   1.00
H274   H     0.29756   0.36231   0.58727   0.00000  Uiso   1.00
C275   C     0.31752   0.23152   0.60010   0.00000  Uiso   1.00
H276   H     0.39406   0.46985   0.57666   0.00000  Uiso   1.00
C277   C     0.30666   0.28328   0.53412   0.00000  Uiso   1.00
H278   H     0.27732   0.34180   0.51283   0.00000  Uiso   1.00
H279   H     0.32241   0.40669   0.56195   0.00000  Uiso   1.00
H280   H     0.29084   0.26930   0.53811   0.00000  Uiso   1.00
C281   C     0.41814   0.34235   0.59615   0.00000  Uiso   1.00
C282   C     0.48302   0.24428   0.56634   0.00000  Uiso   1.00
H283   H     0.49175   0.42850   0.64339   0.00000  Uiso   1.00
H284   H     0.46372   0.35439   0.67054   0.00000  Uiso   1.00
C285   C     0.46401   0.33012   0.61040   0.00000  Uiso   1.00
H286   H     0.34726   0.28391   0.68166   0.00000  Uiso   1.00
H287   H     0.23431   0.29180   0.55112   0.00000  Uiso   1.00
C288   C     0.30845   0.27812   0.65609   0.00000  Uiso   1.00
H289   H     0.50538   0.26982   0.64108   0.00000  Uiso   1.00
H290   H     0.48015   0.32679   0.62575   0.00000  Uiso   1.00
C291   C     0.32393   0.28758   0.67887   0.00000  Uiso   1.00
H292   H     0.48424   0.41879   0.56859   0.00000  Uiso   1.00
H293   H     0.40216   0.33555   0.68221   0.00000  Uiso   1.00
H294   H     0.44816   0.25825   0.62470   0.00000  Uiso   1.00
C295   C     0.43210   0.26631   0.58156   0.00000  Uiso   1.00
C296   C     0.24156   0.41236   0.62364   0.00000  Uiso   1.00
C297   C     0.53307   0.40554   0.58970   0.00000  Uiso   1.00
C298   C     0.53483   0.32198   0.54170   0.00000  Uiso   1.00
H299   H     0.47113   0.43763   0.59662   0.00000  Uiso   1.00
C300   C     0.37975   0.25721   0.49209   0.00000  Uiso   1.00
H301   H     0.32129   0.26943   0.52474   0.00000  Uiso   1.00
N302   N     0.39586   0.36797   0.50477   0.00000  Uiso   1.00
C303   C     0.36968   0.45777   0.51903   0.00000  Uiso   1.00
H304   H     0.41782   0.26292   0.66340   0.00000  Uiso   1.00
C305   C     0.46622   0.25792   0.54786   0.00000  Uiso   1.00
C306   C     0.36475   0.34211   0.60746   0.00000  Uiso   1.00
C307   C     0.42627   0.33842   0.56839   0.00000  Uiso   1.00
C308   C     0.39808   0.35864   0.48277   0.00000  Uiso   1.00
H309   H     0.47392   0.25625   0.52616   0.00000  Uiso   1.00
C310   C     0.23059   0.35656   0.48381   0.00000  Uiso   1.00
C311   C     0.48789   0.33107   0.52867   0.00000  Uiso   1.00
H312   H     0.36464   0.32467   0.59123   0.00000  Uiso   1.00
O313   O     0.49862   0.31955   0.57727   0.00000  Uiso   1.00
H314   H     0.33997   0.39359   0.70935   0.00000  Uiso   1.00
H315   H     0.35628   0.42237   0.69051   0.00000  Uiso   1.00
H316   H     0.31951   0.34418   0.56451   0.00000  Uiso   1.00
O317   O     0.32209   0.26496   0.63553   0.00000  Uiso   1.00
O318   O     0.26080   0.40389   0.64335   0.00000  Uiso   1.00
H319   H     0.33397   0.31425   0.49144   0.00000  Uiso   1.00
H320   H     0.53703   0.38418   0.59719   0.00000  Uiso   1.00
H321   H     0.24543   0.30035   0.67728   0.00000  Uiso   1.00
C322   C     0.22524   0.29637   0.53133   0.00000  Uiso   1.00
C323   C     0.47638   0.24756   0.59497   0.00000  Uiso   1.00
C324   C     0.47813   0.34538   0.48366   0.00000  Uiso   1.00
C325   C     0.55196   0.45110   0.59287   0.00000  Uiso   1.00
H326   H     0.31450   0.39604   0.61994   0.00000  Uiso   1.00
C327   C     0.26650   0.45230   0.65378   0.00000  Uiso   1.00
H328   H     0.47246   0.40299   0.60091   0.00000  Uiso   1.00
C329   C     0.29067   0.41812   0.67758   0.00000  Uiso   1.00
H330   H     0.40529   0.22355   0.54626   0.00000  Uiso   1.00
H331   H     0.33170   0.33255   0.52063   0.00000  Uiso   1.00
O332   O     0.40486   0.27120   0.58980   0.00000  Uiso   1.00
C333   C     0.28262   0.29099   0.48855   0.00000  Uiso   1.00
C334   C     0.36208   0.42154   0.55145   0.00000  Uiso   1.00
H335   H     0.50595   0.39554   0.64214   0.00000  Uiso   1.00
O336   O     0.45839   0.33010   0.53354   0.00000  Uiso   1.00
C337   C     0.27313   0.32278   0.52482   0.00000  Uiso   1.00
H338   H     0.37657   0.26897   0.51162   0.00000  Uiso   1.00
C339   C     0.39881   0.25168   0.66934   0.00000  Uiso   1.00
H340   H     0.45654   0.38271   0.64977   0.00000  Uiso   1.00
C341   C     0.29645   0.30443   0.51445   0.00000  Uiso   1.00
C342   C     0.51282   0.42244   0.60527   0.00000  Uiso   1.00
C343   C     0.32305   0.43537   0.71870   0.00000  Uiso   1.00
C344   C     0.25439   0.29566   0.48714   0.00000  Uiso   1.00
H345   H     0.40698   0.46798   0.62161   0.00000  Uiso   1.00
C346   C     0.29344   0.46446   0.69364   0.00000  Uiso   1.00
C347   C     0.23878   0.44064   0.61731   0.00000  Uiso   1.00
C348   C     0.40454   0.22930   0.69061   0.00000  Uiso   1.00
H349   H     0.36975   0.32220   0.71220   0.00000  Uiso   1.00
C350   C     0.22676   0.33833   0.50459   0.00000  Uiso   1.00
H351   H     0.54857   0.34958   0.67181   0.00000  Uiso   1.00
H352   H     0.35311   0.22499   0.54126   0.00000  Uiso   1.00
O353   O     0.25140   0.46098   0.63277   0.00000  Uiso   1.00
H354   H     0.54182   0.44331   0.53162   0.00000  Uiso   1.00
H355   H     0.48974   0.46542   0.69731   0.00000  Uiso   1.00
H356   H     0.54522   0.37802   0.71276   0.00000  Uiso   1.00
C357   C     0.24325   0.36118   0.71980   0.00000  Uiso   1.00
H358   H     0.25832   0.37540   0.71200   0.00000  Uiso   1.00
C359   C     0.27631   0.47170   0.67313   0.00000  Uiso   1.00
O360   O     0.39056   0.30165   0.47434   0.00000  Uiso   1.00
C361   C     0.35076   0.33428   0.71846   0.00000  Uiso   1.00
N362   N     0.22218   0.22727   0.51801   0.00000  Uiso   1.00
C363   C     0.41594   0.46850   0.50639   0.00000  Uiso   1.00
H364   H     0.55351   0.32637   0.70383   0.00000  Uiso   1.00
H365   H     0.35080   0.46884   0.70709   0.00000  Uiso   1.00
H366   H     0.38504   0.47144   0.66354   0.00000  Uiso   1.00
H367   H     0.23509   0.26595   0.70954   0.00000  Uiso   1.00
H368   H     0.40659   0.44730   0.72092   0.00000  Uiso   1.00
C369   C     0.55434   0.31261   0.56140   0.00000  Uiso   1.00
C370   C     0.22319   0.39394   0.61173   0.00000  Uiso   1.00
H371   H     0.54549   0.44661   0.71775   0.00000  Uiso   1.00
H372   H     0.43913   0.24088   0.47330   0.00000  Uiso   1.00
C373   C     0.33321   0.46647   0.72147   0.00000  Uiso   1.00
C374   C     0.50528   0.26058   0.88696   0.00000  Uiso   1.00
H375   H     0.31940   0.22590   0.96209   0.00000  Uiso   1.00
C376   C     0.25154   0.23716   0.85162   0.00000  Uiso   1.00
C377   C     0.38469   0.45927   0.81947   0.00000  Uiso   1.00
H378   H     0.51037   0.34079   0.95994   0.00000  Uiso   1.00
N379   N     0.26961   0.23122   0.78141   0.00000  Uiso   1.00
H380   H     0.35648   0.23702   0.72528   0.00000  Uiso   1.00
C381   C     0.41058   0.31509   0.90165   0.00000  Uiso   1.00
C382   C     0.24817   0.33518   0.73011   0.00000  Uiso   1.00
H383   H     0.39509   0.39053   0.92551   0.00000  Uiso   1.00
C384   C     0.47910   0.26233   0.92979   0.00000  Uiso   1.00
C385   C     0.44435   0.38219   0.85890   0.00000  Uiso   1.00
C386   C     0.41935   0.33780   0.88619   0.00000  Uiso   1.00
H387   H     0.31542   0.28420   0.82251   0.00000  Uiso   1.00
H388   H     0.33913   0.36174   0.96385   0.00000  Uiso   1.00
O389   O     0.24195   0.43239   0.90013   0.00000  Uiso   1.00
O390   O     0.42264   0.38828   0.87706   0.00000  Uiso   1.00
C391   C     0.43990   0.28033   0.78200   0.00000  Uiso   1.00
H392   H     0.34035   0.46947   0.74330   0.00000  Uiso   1.00
C393   C     0.46142   0.25996   0.78130   0.00000  Uiso   1.00
O394   O     0.43241   0.33222   0.86087   0.00000  Uiso   1.00
H395   H     0.47686   0.30247   0.94891   0.00000  Uiso   1.00
O396   O     0.37026   0.38592   0.80127   0.00000  Uiso   1.00
H397   H     0.23932   0.39201   0.93628   0.00000  Uiso   1.00
C398   C     0.48607   0.28988   0.93225   0.00000  Uiso   1.00
N399   N     0.48163   0.29967   0.82185   0.00000  Uiso   1.00
C400   C     0.29565   0.25055   0.83099   0.00000  Uiso   1.00
C401   C     0.53765   0.33106   0.89290   0.00000  Uiso   1.00
H402   H     0.48191   0.26656   0.77329   0.00000  Uiso   1.00
C403   C     0.32620   0.31661   0.72416   0.00000  Uiso   1.00
C404   C     0.22534   0.26872   0.72989   0.00000  Uiso   1.00
H405   H     0.27658   0.27539   0.74252   0.00000  Uiso   1.00
H406   H     0.28467   0.29839   0.92220   0.00000  Uiso   1.00
C407   C     0.42973   0.35108   0.76925   0.00000  Uiso   1.00
H408   H     0.30029   0.32096   0.85398   0.00000  Uiso   1.00
N409   N     0.33765   0.32284   0.82285   0.00000  Uiso   1.00
H410   H     0.41703   0.29357   0.89503   0.00000  Uiso   1.00
H411   H     0.51238   0.23607   0.80623   0.00000  Uiso   1.00
C412   C     0.40142   0.36975   0.91969   0.00000  Uiso   1.00
C413   C     0.38051   0.33667   0.79584   0.00000  Uiso   1.00
C414   C     0.38264   0.41239   0.80151   0.00000  Uiso   1.00
H415   H     0.42901   0.29543   0.97045   0.00000  Uiso   1.00
C416   C     0.22454   0.28885   0.77845   0.00000  Uiso   1.00
O417   O     0.30808   0.26821   0.81242   0.00000  Uiso   1.00
C418   C     0.40502   0.41903   0.78503   0.00000  Uiso   1.00
N419   N     0.47324   0.36547   0.74141   0.00000  Uiso   1.00
C420   C     0.51319   0.28700   0.89127   0.00000  Uiso   1.00
H421   H     0.30621   0.32096   0.94143   0.00000  Uiso   1.00
O422   O     0.28341   0.42104   0.85650   0.00000  Uiso   1.00
C423   C     0.48767   0.24746   0.90562   0.00000  Uiso   1.00
C424   C     0.43080   0.22631   0.79821   0.00000  Uiso   1.00
C425   C     0.51816   0.41022   0.80221   0.00000  Uiso   1.00
H426   H     0.29751   0.40517   0.74014   0.00000  Uiso   1.00
C427   C     0.30515   0.22455   0.83569   0.00000  Uiso   1.00
H428   H     0.34324   0.31113   0.89216   0.00000  Uiso   1.00
C429   C     0.45710   0.23318   0.79057   0.00000  Uiso   1.00
C430   C     0.46070   0.40354   0.84762   0.00000  Uiso   1.00
H431   H     0.22229   0.22429   0.90559   0.00000  Uiso   1.00
C432   C     0.39475   0.34735   0.93641   0.00000  Uiso   1.00
C433   C     0.42565   0.32437   0.77811   0.00000  Uiso   1.00
O434   O     0.44632   0.30548   0.77120   0.00000  Uiso   1.00
C435   C     0.22547   0.31824   0.73757   0.00000  Uiso   1.00
C436   C     0.47607   0.32223   0.82634   0.00000  Uiso   1.00
C437   C     0.41316   0.36458   0.89325   0.00000  Uiso   1.00
H438   H     0.54684   0.27923   0.84513   0.00000  Uiso   1.00
C439   C     0.40989   0.24409   0.79838   0.00000  Uiso   1.00
H440   H     0.48412   0.23288   0.83339   0.00000  Uiso   1.00
C441   C     0.44841   0.35433   0.85099   0.00000  Uiso   1.00
C442   C     0.48632   0.37001   0.82058   0.00000  Uiso   1.00
C443   C     0.26850   0.36254   0.91720   0.00000  Uiso   1.00
H444   H     0.36214   0.41413   0.72794   0.00000  Uiso   1.00
H445   H     0.26724   0.27151   0.95062   0.00000  Uiso   1.00
C446   C     0.37121   0.27925   0.93440   0.00000  Uiso   1.00
H447   H     0.36377   0.26174   0.94802   0.00000  Uiso   1.00
C448   C     0.35942   0.36731   0.97174   0.00000  Uiso   1.00
C449   C     0.39928   0.32081   0.92628   0.00000  Uiso   1.00
C450   C     0.47018   0.34906   0.83325   0.00000  Uiso   1.00
C451   C     0.23623   0.29330   0.74851   0.00000  Uiso   1.00
C452   C     0.41431   0.27183   0.79150   0.00000  Uiso   1.00
H453   H     0.47992   0.35590   0.92755   0.00000  Uiso   1.00
O454   O     0.50004   0.41730   0.82108   0.00000  Uiso   1.00
H455   H     0.33873   0.34493   0.87696   0.00000  Uiso   1.00
H456   H     0.31833   0.28143   0.75499   0.00000  Uiso   1.00
H457   H     0.30174   0.35594   0.72758   0.00000  Uiso   1.00
H458   H     0.32051   0.41952   0.76351   0.00000  Uiso   1.00
H459   H     0.38136   0.27079   0.91641   0.00000  Uiso   1.00
C460   C     0.27614   0.46882   0.84363   0.00000  Uiso   1.00
C461   C     0.26918   0.44675   0.86044   0.00000  Uiso   1.00
C462   C     0.24059   0.31959   0.92807   0.00000  Uiso   1.00
C463   C     0.49609   0.35572   0.91097   0.00000  Uiso   1.00
H464   H     0.26001   0.27676   0.83299   0.00000  Uiso   1.00
C465   C     0.54086   0.29995   0.88197   0.00000  Uiso   1.00
C466   C     0.55358   0.29825   0.85351   0.00000  Uiso   1.00
H467   H     0.39068   0.23608   0.80634   0.00000  Uiso   1.00
C468   C     0.48173   0.39761   0.82842   0.00000  Uiso   1.00
C469   C     0.52056   0.38345   0.79059   0.00000  Uiso   1.00
C470   C     0.53512   0.43007   0.78975   0.00000  Uiso   1.00
C471   C     0.24405   0.27166   0.95117   0.00000  Uiso   1.00
H472   H     0.23683   0.26016   0.96932   0.00000  Uiso   1.00
H473   H     0.35256   0.28060   0.73816   0.00000  Uiso   1.00
C474   C     0.23129   0.30106   0.95136   0.00000  Uiso   1.00
C475   C     0.38248   0.34642   0.96661   0.00000  Uiso   1.00
C476   C     0.33525   0.29441   0.74603   0.00000  Uiso   1.00
C477   C     0.30737   0.42527   0.74603   0.00000  Uiso   1.00
H478   H     0.23064   0.24726   0.73866   0.00000  Uiso   1.00
H479   H     0.30859   0.37395   0.86128   0.00000  Uiso   1.00
C480   C     0.41563   0.28250   0.95613   0.00000  Uiso   1.00
H481   H     0.53270   0.45063   0.79919   0.00000  Uiso   1.00
C482   C     0.38965   0.29965   0.94783   0.00000  Uiso   1.00
C483   C     0.41414   0.44634   0.78302   0.00000  Uiso   1.00
C484   C     0.30202   0.33013   0.89759   0.00000  Uiso   1.00
C485   C     0.52644   0.33607   0.94362   0.00000  Uiso   1.00
C486   C     0.50152   0.30323   0.91174   0.00000  Uiso   1.00
C487   C     0.26592   0.33649   0.93446   0.00000  Uiso   1.00
H488   H     0.36462   0.38787   0.96464   0.00000  Uiso   1.00
H489   H     0.53071   0.34280   0.87603   0.00000  Uiso   1.00
O490   O     0.46797   0.24888   0.95278   0.00000  Uiso   1.00
C491   C     0.37508   0.31675   0.96967   0.00000  Uiso   1.00
C492   C     0.26923   0.25688   0.83941   0.00000  Uiso   1.00
H493   H     0.30018   0.33507   0.75928   0.00000  Uiso   1.00
C494   C     0.37123   0.43285   0.81807   0.00000  Uiso   1.00
H495   H     0.35322   0.29126   0.92710   0.00000  Uiso   1.00
C496   C     0.40052   0.31751   0.78972   0.00000  Uiso   1.00
O497   O     0.39300   0.28964   0.79463   0.00000  Uiso   1.00
H498   H     0.34274   0.30508   0.76440   0.00000  Uiso   1.00
C499   C     0.53708   0.37810   0.76876   0.00000  Uiso   1.00
C500   C     0.25238   0.38717   0.91804   0.00000  Uiso   1.00
C501   C     0.29370   0.46474   0.81931   0.00000  Uiso   1.00
O502   O     0.50451   0.36147   0.79981   0.00000  Uiso   1.00
C503   C     0.25795   0.40805   0.89859   0.00000  Uiso   1.00
C504   C     0.38696   0.36455   0.79144   0.00000  Uiso   1.00
H505   H     0.27596   0.30104   0.77015   0.00000  Uiso   1.00
H506   H     0.35336   0.31697   0.96929   0.00000  Uiso   1.00
C507   C     0.35724   0.32858   0.81122   0.00000  Uiso   1.00
C508   C     0.45658   0.43095   0.85682   0.00000  Uiso   1.00
H509   H     0.35157   0.43232   0.83280   0.00000  Uiso   1.00
C510   C     0.41188   0.37157   0.77800   0.00000  Uiso   1.00
C511   C     0.45359   0.35933   0.75459   0.00000  Uiso   1.00
H512   H     0.48637   0.35484   0.89154   0.00000  Uiso   1.00
C513   C     0.29328   0.37928   0.87790   0.00000  Uiso   1.00
H514   H     0.26688   0.31821   0.87385   0.00000  Uiso   1.00
H515   H     0.34210   0.34074   0.91306   0.00000  Uiso   1.00
C516   C     0.27742   0.40227   0.87763   0.00000  Uiso   1.00
H517   H     0.43205   0.45128   0.76907   0.00000  Uiso   1.00
N518   N     0.30848   0.46151   0.80019   0.00000  Uiso   1.00
C519   C     0.29136   0.32046   0.92484   0.00000  Uiso   1.00
H520   H     0.53791   0.35548   0.94387   0.00000  Uiso   1.00
O521   O     0.41811   0.39853   0.77095   0.00000  Uiso   1.00
C522   C     0.33241   0.33140   0.89559   0.00000  Uiso   1.00
H523   H     0.29517   0.29292   0.87555   0.00000  Uiso   1.00
C524   C     0.28790   0.35868   0.89727   0.00000  Uiso   1.00
C525   C     0.28945   0.31391   0.87279   0.00000  Uiso   1.00
C526   C     0.40426   0.46642   0.80069   0.00000  Uiso   1.00
H527   H     0.35893   0.34945   0.73285   0.00000  Uiso   1.00
C528   C     0.26214   0.33915   0.96439   0.00000  Uiso   1.00
N529   N     0.45404   0.45339   0.86485   0.00000  Uiso   1.00
C530   C     0.26738   0.29550   0.74799   0.00000  Uiso   1.00
H531   H     0.28732   0.43437   0.75119   0.00000  Uiso   1.00
H532   H     0.42502   0.27310   0.93785   0.00000  Uiso   1.00
H533   H     0.51537   0.24922   0.86959   0.00000  Uiso   1.00
C534   C     0.30144   0.33338   0.73637   0.00000  Uiso   1.00
H535   H     0.50786   0.37644   0.91222   0.00000  Uiso   1.00
H536   H     0.24418   0.30695   0.90846   0.00000  Uiso   1.00
H537   H     0.23339   0.30319   0.79316   0.00000  Uiso   1.00
C538   C     0.51480   0.33097   0.91502   0.00000  Uiso   1.00
H539   H     0.41652   0.23029   0.73747   0.00000  Uiso   1.00
H540   H     0.22888   0.26694   0.78429   0.00000  Uiso   1.00
H541   H     0.23659   0.26049   0.93326   0.00000  Uiso   1.00
H542   H     0.54312   0.32163   0.94892   0.00000  Uiso   1.00
C543   C     0.25030   0.45289   0.88111   0.00000  Uiso   1.00
H544   H     0.54512   0.31482   0.83911   0.00000  Uiso   1.00
H545   H     0.53428   0.35720   0.76076   0.00000  Uiso   1.00
H546   H     0.54063   0.27460   0.93812   0.00000  Uiso   1.00
H547   H     0.37659   0.45710   0.87768   0.00000  Uiso   1.00
C548   C     0.55458   0.42336   0.76894   0.00000  Uiso   1.00
C549   C     0.27464   0.31893   0.72821   0.00000  Uiso   1.00
H550   H     0.22460   0.26970   0.89340   0.00000  Uiso   1.00
H551   H     0.44357   0.45252   0.72361   0.00000  Uiso   1.00
H552   H     0.41007   0.26489   0.96921   0.00000  Uiso   1.00
H553   H     0.40264   0.25975   0.72527   0.00000  Uiso   1.00
H554   H     0.38620   0.29366   1.08736   0.00000  Uiso   1.00
C555   C     0.35915   0.37071   1.00310   0.00000  Uiso   1.00
C556   C     0.26775   0.35411   1.01130   0.00000  Uiso   1.00
C557   C     0.30967   0.22428   1.07550   0.00000  Uiso   1.00
O558   O     0.25685   0.35091   1.14081   0.00000  Uiso   1.00
C559   C     0.32326   0.33721   1.14145   0.00000  Uiso   1.00
O560   O     0.23664   0.45316   1.07635   0.00000  Uiso   1.00
C561   C     0.47358   0.44929   1.03657   0.00000  Uiso   1.00
C562   C     0.40321   0.35473   0.98880   0.00000  Uiso   1.00
C563   C     0.32086   0.30471   1.10306   0.00000  Uiso   1.00
C564   C     0.49453   0.46799   1.02088   0.00000  Uiso   1.00
C565   C     0.31087   0.25144   1.08471   0.00000  Uiso   1.00
H566   H     0.39659   0.30655   1.12146   0.00000  Uiso   1.00
H567   H     0.35145   0.40659   1.17069   0.00000  Uiso   1.00
H568   H     0.35930   0.41598   1.00015   0.00000  Uiso   1.00
C569   C     0.38919   0.36755   1.01086   0.00000  Uiso   1.00
H570   H     0.41240   0.30262   1.17409   0.00000  Uiso   1.00
C571   C     0.31407   0.23799   0.98095   0.00000  Uiso   1.00
C572   C     0.43089   0.35140   0.99121   0.00000  Uiso   1.00
C573   C     0.27263   0.39032   1.07714   0.00000  Uiso   1.00
C574   C     0.44452   0.35604   1.01535   0.00000  Uiso   1.00
H575   H     0.39936   0.42254   1.09573   0.00000  Uiso   1.00
H576   H     0.42616   0.26875   1.05911   0.00000  Uiso   1.00
C577   C     0.26653   0.39918   1.15132   0.00000  Uiso   1.00
C578   C     0.55153   0.33650   1.15536   0.00000  Uiso   1.00
C579   C     0.42867   0.36439   1.03836   0.00000  Uiso   1.00
C580   C     0.45234   0.31171   1.18659   0.00000  Uiso   1.00
C581   C     0.49410   0.39284   1.22175   0.00000  Uiso   1.00
N582   N     0.43914   0.36406   1.13423   0.00000  Uiso   1.00
H583   H     0.52089   0.43593   1.08681   0.00000  Uiso   1.00
O584   O     0.55246   0.35352   1.08110   0.00000  Uiso   1.00
C585   C     0.39306   0.24033   1.09913   0.00000  Uiso   1.00
H586   H     0.48326   0.42828   1.03913   0.00000  Uiso   1.00
C587   C     0.34268   0.34629   1.01416   0.00000  Uiso   1.00
H588   H     0.43274   0.31955   1.14572   0.00000  Uiso   1.00
C589   C     0.32404   0.33177   1.11331   0.00000  Uiso   1.00
C590   C     0.25753   0.38392   1.20761   0.00000  Uiso   1.00
C591   C     0.34916   0.38905   1.18476   0.00000  Uiso   1.00
N592   N     0.29532   0.25150   1.18138   0.00000  Uiso   1.00
H593   H     0.49474   0.29444   1.13254   0.00000  Uiso   1.00
H594   H     0.36542   0.45053   1.21164   0.00000  Uiso   1.00
C595   C     0.54224   0.40009   1.21552   0.00000  Uiso   1.00
C596   C     0.46163   0.26465   1.17390   0.00000  Uiso   1.00
H597   H     0.53792   0.33366   1.17288   0.00000  Uiso   1.00
H598   H     0.38072   0.30647   0.98867   0.00000  Uiso   1.00
O599   O     0.25691   0.32142   1.04737   0.00000  Uiso   1.00
O600   O     0.30429   0.25718   1.11216   0.00000  Uiso   1.00
C601   C     0.30181   0.26773   1.16661   0.00000  Uiso   1.00
C602   C     0.31164   0.28497   1.12140   0.00000  Uiso   1.00
C603   C     0.30816   0.28934   1.14930   0.00000  Uiso   1.00
C604   C     0.26537   0.41854   1.17232   0.00000  Uiso   1.00
N605   N     0.29040   0.43604   1.05987   0.00000  Uiso   1.00
C606   C     0.26116   0.34304   1.06598   0.00000  Uiso   1.00
C607   C     0.48964   0.28592   1.08802   0.00000  Uiso   1.00
O608   O     0.32604   0.36376   1.15021   0.00000  Uiso   1.00
C609   C     0.33259   0.35247   1.09380   0.00000  Uiso   1.00
O610   O     0.47539   0.28241   1.03944   0.00000  Uiso   1.00
C611   C     0.43551   0.27066   1.10234   0.00000  Uiso   1.00
H612   H     0.48681   0.33622   1.19423   0.00000  Uiso   1.00
C613   C     0.41000   0.43635   1.08140   0.00000  Uiso   1.00
C614   C     0.53035   0.35837   1.03002   0.00000  Uiso   1.00
C615   C     0.33187   0.34372   1.19542   0.00000  Uiso   1.00
O616   O     0.31867   0.31830   1.18855   0.00000  Uiso   1.00
C617   C     0.45444   0.27738   1.12397   0.00000  Uiso   1.00
C618   C     0.33643   0.36487   1.17644   0.00000  Uiso   1.00
C619   C     0.38936   0.28876   1.10893   0.00000  Uiso   1.00
C620   C     0.26739   0.38544   1.10502   0.00000  Uiso   1.00
C621   C     0.25725   0.33827   1.09345   0.00000  Uiso   1.00
C622   C     0.45565   0.36176   1.11665   0.00000  Uiso   1.00
C623   C     0.47589   0.44377   1.09013   0.00000  Uiso   1.00
C624   C     0.40809   0.26343   1.11355   0.00000  Uiso   1.00
C625   C     0.51186   0.35695   1.05124   0.00000  Uiso   1.00
C626   C     0.43748   0.32049   1.21276   0.00000  Uiso   1.00
C627   C     0.31580   0.31507   1.16024   0.00000  Uiso   1.00
N628   N     0.55132   0.26174   1.10168   0.00000  Uiso   1.00
C629   C     0.25910   0.35824   1.11321   0.00000  Uiso   1.00
H630   H     0.29247   0.23452   0.98558   0.00000  Uiso   1.00
C631   C     0.28191   0.41545   1.06821   0.00000  Uiso   1.00
C632   C     0.45492   0.43219   1.13241   0.00000  Uiso   1.00
H633   H     0.33025   0.28207   1.02583   0.00000  Uiso   1.00
C634   C     0.32423   0.26600   1.03998   0.00000  Uiso   1.00
H635   H     0.32656   0.39956   1.00543   0.00000  Uiso   1.00
C636   C     0.31818   0.27292   1.06737   0.00000  Uiso   1.00
O637   O     0.32250   0.29994   1.07490   0.00000  Uiso   1.00
O638   O     0.43740   0.36608   1.06538   0.00000  Uiso   1.00
H639   H     0.36915   0.28436   1.11972   0.00000  Uiso   1.00
N640   N     0.46570   0.23126   1.02270   0.00000  Uiso   1.00
O641   O     0.47299   0.35152   1.01841   0.00000  Uiso   1.00
C642   C     0.46975   0.27946   1.06801   0.00000  Uiso   1.00
C643   C     0.53418   0.41455   1.16078   0.00000  Uiso   1.00
C644   C     0.43281   0.30355   1.16291   0.00000  Uiso   1.00
H645   H     0.42709   0.34069   1.20955   0.00000  Uiso   1.00
C646   C     0.36224   0.38989   1.20984   0.00000  Uiso   1.00
H647   H     0.45512   0.44760   1.02365   0.00000  Uiso   1.00
C648   C     0.34902   0.39918   1.01170   0.00000  Uiso   1.00
C649   C     0.41585   0.25704   1.14327   0.00000  Uiso   1.00
C650   C     0.46954   0.46293   1.06545   0.00000  Uiso   1.00
H651   H     0.43712   0.43475   1.14745   0.00000  Uiso   1.00
C652   C     0.50430   0.35542   1.09931   0.00000  Uiso   1.00
H653   H     0.41053   0.39381   1.18207   0.00000  Uiso   1.00
H654   H     0.42127   0.30620   1.21955   0.00000  Uiso   1.00
H655   H     0.34862   0.40538   1.03350   0.00000  Uiso   1.00
H656   H     0.39517   0.42798   1.17679   0.00000  Uiso   1.00
C657   C     0.32430   0.23950   1.03170   0.00000  Uiso   1.00
H658   H     0.36248   0.26118   0.99606   0.00000  Uiso   1.00
H659   H     0.42072   0.23415   1.14377   0.00000  Uiso   1.00
H660   H     0.23365   0.29343   1.00997   0.00000  Uiso   1.00
H661   H     0.38758   0.37869   1.05292   0.00000  Uiso   1.00
C662   C     0.51125   0.41081   1.17901   0.00000  Uiso   1.00
C663   C     0.40171   0.37195   1.03681   0.00000  Uiso   1.00
O664   O     0.27088   0.40691   1.12442   0.00000  Uiso   1.00
H665   H     0.46218   0.35515   1.17649   0.00000  Uiso   1.00
N666   N     0.34022   0.36854   1.07749   0.00000  Uiso   1.00
C667   C     0.42715   0.45767   1.09525   0.00000  Uiso   1.00
C668   C     0.25251   0.31147   1.10292   0.00000  Uiso   1.00
C669   C     0.48995   0.28219   1.21018   0.00000  Uiso   1.00
C670   C     0.46617   0.35998   1.06842   0.00000  Uiso   1.00
N671   N     0.24845   0.28844   1.11154   0.00000  Uiso   1.00
C672   C     0.27230   0.35766   0.98283   0.00000  Uiso   1.00
C673   C     0.44041   0.27468   1.15225   0.00000  Uiso   1.00
C674   C     0.40343   0.41337   1.19248   0.00000  Uiso   1.00
C675   C     0.46859   0.28626   1.19140   0.00000  Uiso   1.00
C676   C     0.26014   0.41139   1.20020   0.00000  Uiso   1.00
C677   C     0.48105   0.28532   1.11580   0.00000  Uiso   1.00
H678   H     0.48125   0.32764   1.15962   0.00000  Uiso   1.00
C679   C     0.47380   0.23889   1.17715   0.00000  Uiso   1.00
H680   H     0.35108   0.32554   1.01426   0.00000  Uiso   1.00
O681   O     0.51364   0.35679   1.12707   0.00000  Uiso   1.00
C682   C     0.47481   0.35753   1.09599   0.00000  Uiso   1.00
N683   N     0.25108   0.24072   1.02803   0.00000  Uiso   1.00
C684   C     0.38471   0.40990   1.21835   0.00000  Uiso   1.00
C685   C     0.25874   0.36307   1.18749   0.00000  Uiso   1.00
C686   C     0.44318   0.27192   1.07504   0.00000  Uiso   1.00
C687   C     0.48422   0.35634   1.04627   0.00000  Uiso   1.00
C688   C     0.52331   0.35559   1.07739   0.00000  Uiso   1.00
H689   H     0.47652   0.26504   1.03009   0.00000  Uiso   1.00
H690   H     0.33646   0.35178   1.03500   0.00000  Uiso   1.00
H691   H     0.32296   0.34402   1.00079   0.00000  Uiso   1.00
O692   O     0.51546   0.29661   1.08242   0.00000  Uiso   1.00
C693   C     0.26887   0.36989   1.05755   0.00000  Uiso   1.00
O694   O     0.27406   0.37559   1.03006   0.00000  Uiso   1.00
C695   C     0.47146   0.33494   1.17864   0.00000  Uiso   1.00
H696   H     0.49972   0.43534   0.98797   0.00000  Uiso   1.00
H697   H     0.30815   0.44862   1.21891   0.00000  Uiso   1.00
H698   H     0.26607   0.44095   1.16740   0.00000  Uiso   1.00
C699   C     0.24584   0.31086   1.00193   0.00000  Uiso   1.00
H700   H     0.40019   0.25878   1.15871   0.00000  Uiso   1.00
C701   C     0.54918   0.23878   1.10867   0.00000  Uiso   1.00
H702   H     0.25954   0.34088   1.19455   0.00000  Uiso   1.00
C703   C     0.26043   0.37158   1.15951   0.00000  Uiso   1.00
C704   C     0.25771   0.32882   1.02091   0.00000  Uiso   1.00
C705   C     0.48123   0.42423   1.14391   0.00000  Uiso   1.00
N706   N     0.54645   0.35993   1.01190   0.00000  Uiso   1.00
O707   O     0.53109   0.42002   1.13398   0.00000  Uiso   1.00
H708   H     0.39789   0.46766   1.12896   0.00000  Uiso   1.00
C709   C     0.50095   0.43349   1.09990   0.00000  Uiso   1.00
H710   H     0.52576   0.43232   1.01180   0.00000  Uiso   1.00
H711   H     0.42039   0.42561   1.06527   0.00000  Uiso   1.00
C712   C     0.54205   0.34725   1.12971   0.00000  Uiso   1.00
C713   C     0.45162   0.44296   1.10742   0.00000  Uiso   1.00
C714   C     0.36368   0.23796   0.99794   0.00000  Uiso   1.00
O715   O     0.48386   0.41140   1.16897   0.00000  Uiso   1.00
H716   H     0.39354   0.44618   1.06873   0.00000  Uiso   1.00
C717   C     0.50375   0.42573   1.12606   0.00000  Uiso   1.00
N718   N     0.55254   0.26996   1.03348   0.00000  Uiso   1.00
C719   C     0.24512   0.31681   0.97445   0.00000  Uiso   1.00
H720   H     0.53141   0.28417   1.08244   0.00000  Uiso   1.00
C721   C     0.51628   0.40139   1.20544   0.00000  Uiso   1.00
C722   C     0.23978   0.24228   1.04923   0.00000  Uiso   1.00
H723   H     0.42112   0.42514   1.19851   0.00000  Uiso   1.00
H724   H     0.46541   0.22225   1.16428   0.00000  Uiso   1.00
H725   H     0.37520   0.23051   0.97857   0.00000  Uiso   1.00
C726   C     0.51215   0.44897   1.00248   0.00000  Uiso   1.00
C727   C     0.50057   0.25555   1.21463   0.00000  Uiso   1.00
C728   C     0.49078   0.23338   1.19892   0.00000  Uiso   1.00
H729   H     0.38907   0.24665   1.07795   0.00000  Uiso   1.00
H730   H     0.31605   0.26039   0.97466   0.00000  Uiso   1.00
H731   H     0.37058   0.23420   1.10761   0.00000  Uiso   1.00
C732   C     0.22633   0.22383   1.09394   0.00000  Uiso   1.00
C733   C     0.33469   0.22847   1.00432   0.00000  Uiso   1.00
H734   H     0.44324   0.34487   0.97398   0.00000  Uiso   1.00
H735   H     0.52709   0.46122   0.98858   0.00000  Uiso   1.00
H736   H     0.37756   0.23359   1.01529   0.00000  Uiso   1.00
H737   H     0.28017   0.37815   0.97788   0.00000  Uiso   1.00
C738   C     0.22543   0.44937   1.02733   0.00000  Uiso   1.00
C739   C     0.34506   0.34519   1.22077   0.00000  Uiso   1.00
C740   C     0.22464   0.24601   1.07459   0.00000  Uiso   1.00
O741   O     0.24122   0.47109   1.02053   0.00000  Uiso   1.00
C742   C     0.22268   0.44005   1.05499   0.00000  Uiso   1.00
H743   H     0.50074   0.29867   1.21964   0.00000  Uiso   1.00
C744   C     0.34070   0.58271   0.29931   0.00000  Uiso   1.00
H745   H     0.35199   0.71605   0.24329   0.00000  Uiso   1.00
C746   C     0.43710   0.48421   0.35291   0.00000  Uiso   1.00
C747   C     0.22688   0.58952   0.36120   0.00000  Uiso   1.00
C748   C     0.24437   0.67264   0.24033   0.00000  Uiso   1.00
F749   F     0.28356   0.50802   0.36241   0.00000  Uiso   1.00
H750   H     0.39170   0.67091   0.35117   0.00000  Uiso   1.00
C751   C     0.49881   0.61390   0.27289   0.00000  Uiso   1.00
C752   C     0.45034   0.49304   0.40380   0.00000  Uiso   1.00
H753   H     0.38069   0.64987   0.44926   0.00000  Uiso   1.00
C754   C     0.29971   0.48648   0.36094   0.00000  Uiso   1.00
C755   C     0.45420   0.71798   0.31658   0.00000  Uiso   1.00
H756   H     0.38569   0.49124   0.37308   0.00000  Uiso   1.00
C757   C     0.32715   0.53578   0.29985   0.00000  Uiso   1.00
O758   O     0.27265   0.60121   0.35151   0.00000  Uiso   1.00
C759   C     0.38421   0.56705   0.45880   0.00000  Uiso   1.00
H760   H     0.54179   0.58833   0.45202   0.00000  Uiso   1.00
C761   C     0.47395   0.62083   0.26118   0.00000  Uiso   1.00
N762   N     0.26909   0.48654   0.29919   0.00000  Uiso   1.00
C763   C     0.42002   0.66242   0.22969   0.00000  Uiso   1.00
H764   H     0.45610   0.57070   0.40504   0.00000  Uiso   1.00
C765   C     0.40860   0.68202   0.34208   0.00000  Uiso   1.00
H766   H     0.41845   0.48804   0.34012   0.00000  Uiso   1.00
H767   H     0.39463   0.50072   0.40719   0.00000  Uiso   1.00
C768   C     0.45339   0.48625   0.28250   0.00000  Uiso   1.00
H769   H     0.44547   0.69795   0.22819   0.00000  Uiso   1.00
C770   C     0.49614   0.59081   0.41666   0.00000  Uiso   1.00
C771   C     0.32187   0.56251   0.30701   0.00000  Uiso   1.00
H772   H     0.49875   0.63432   0.40060   0.00000  Uiso   1.00
H773   H     0.50653   0.55589   0.38984   0.00000  Uiso   1.00
C774   C     0.39098   0.54279   0.47204   0.00000  Uiso   1.00
C775   C     0.40204   0.49879   0.38621   0.00000  Uiso   1.00
C776   C     0.50888   0.68420   0.23911   0.00000  Uiso   1.00
C777   C     0.31404   0.61567   0.32618   0.00000  Uiso   1.00
N778   N     0.30495   0.66436   0.34587   0.00000  Uiso   1.00
C779   C     0.30941   0.64228   0.33702   0.00000  Uiso   1.00
C780   C     0.33623   0.61044   0.30903   0.00000  Uiso   1.00
C781   C     0.29493   0.59480   0.33259   0.00000  Uiso   1.00
H782   H     0.31283   0.67899   0.43923   0.00000  Uiso   1.00
C783   C     0.45176   0.60010   0.43967   0.00000  Uiso   1.00
H784   H     0.42593   0.66686   0.34280   0.00000  Uiso   1.00
H785   H     0.43818   0.63754   0.41981   0.00000  Uiso   1.00
H786   H     0.40535   0.68570   0.32032   0.00000  Uiso   1.00
C787   C     0.26653   0.65043   0.44810   0.00000  Uiso   1.00
C788   C     0.50633   0.58038   0.23602   0.00000  Uiso   1.00
O789   O     0.27790   0.54824   0.32410   0.00000  Uiso   1.00
C790   C     0.29793   0.56910   0.32029   0.00000  Uiso   1.00
C791   C     0.22838   0.67080   0.28906   0.00000  Uiso   1.00
O792   O     0.29302   0.53706   0.24125   0.00000  Uiso   1.00
C793   C     0.38367   0.62831   0.45380   0.00000  Uiso   1.00
C794   C     0.28536   0.51002   0.23722   0.00000  Uiso   1.00
C795   C     0.43279   0.62528   0.43760   0.00000  Uiso   1.00
C796   C     0.54762   0.59884   0.29763   0.00000  Uiso   1.00
O797   O     0.36519   0.57447   0.28432   0.00000  Uiso   1.00
C798   C     0.29765   0.71479   0.46213   0.00000  Uiso   1.00
C799   C     0.39984   0.59297   0.25460   0.00000  Uiso   1.00
O800   O     0.50667   0.62772   0.29632   0.00000  Uiso   1.00
C801   C     0.23017   0.54348   0.32919   0.00000  Uiso   1.00
H802   H     0.45687   0.67529   0.25234   0.00000  Uiso   1.00
C803   C     0.48082   0.58914   0.22484   0.00000  Uiso   1.00
H804   H     0.25723   0.65480   0.24419   0.00000  Uiso   1.00
H805   H     0.31666   0.63551   0.43219   0.00000  Uiso   1.00
H806   H     0.38163   0.66747   0.27524   0.00000  Uiso   1.00
H807   H     0.26653   0.66049   0.42768   0.00000  Uiso   1.00
C808   C     0.31915   0.67005   0.24954   0.00000  Uiso   1.00
H809   H     0.42729   0.69636   0.26023   0.00000  Uiso   1.00
C810   C     0.47524   0.60466   0.46068   0.00000  Uiso   1.00
O811   O     0.53873   0.58286   0.27437   0.00000  Uiso   1.00
C812   C     0.41386   0.61457   0.24291   0.00000  Uiso   1.00
C813   C     0.37849   0.59789   0.27383   0.00000  Uiso   1.00
H814   H     0.43161   0.48698   0.27422   0.00000  Uiso   1.00
C815   C     0.25287   0.55875   0.33476   0.00000  Uiso   1.00
H816   H     0.38303   0.63382   0.39953   0.00000  Uiso   1.00
H817   H     0.25412   0.69874   0.38202   0.00000  Uiso   1.00
C818   C     0.32517   0.57141   0.22545   0.00000  Uiso   1.00
H819   H     0.31523   0.59982   0.43253   0.00000  Uiso   1.00
O820   O     0.35465   0.63090   0.30267   0.00000  Uiso   1.00
H821   H     0.45257   0.50070   0.29947   0.00000  Uiso   1.00
H822   H     0.52004   0.56538   0.22719   0.00000  Uiso   1.00
C823   C     0.25065   0.58413   0.34843   0.00000  Uiso   1.00
C824   C     0.43813   0.68399   0.24489   0.00000  Uiso   1.00
C825   C     0.31837   0.54407   0.23061   0.00000  Uiso   1.00
C826   C     0.38737   0.64725   0.26971   0.00000  Uiso   1.00
C827   C     0.50548   0.69161   0.43616   0.00000  Uiso   1.00
N828   N     0.51015   0.66990   0.35261   0.00000  Uiso   1.00
C829   C     0.30890   0.69995   0.24804   0.00000  Uiso   1.00
H830   H     0.50478   0.60860   0.37504   0.00000  Uiso   1.00
C831   C     0.53190   0.62050   0.30703   0.00000  Uiso   1.00
C832   C     0.39231   0.61261   0.40400   0.00000  Uiso   1.00
C833   C     0.41744   0.70929   0.35445   0.00000  Uiso   1.00
H834   H     0.29653   0.61883   0.40650   0.00000  Uiso   1.00
H835   H     0.31533   0.66360   0.27128   0.00000  Uiso   1.00
C836   C     0.42856   0.48185   0.38388   0.00000  Uiso   1.00
C837   C     0.52457   0.65441   0.34188   0.00000  Uiso   1.00
H838   H     0.49332   0.68181   0.39503   0.00000  Uiso   1.00
H839   H     0.41007   0.60885   0.39115   0.00000  Uiso   1.00
H840   H     0.53069   0.61622   0.39943   0.00000  Uiso   1.00
C841   C     0.48925   0.69555   0.41351   0.00000  Uiso   1.00
H842   H     0.24137   0.52061   0.24357   0.00000  Uiso   1.00
H843   H     0.37609   0.59627   0.40312   0.00000  Uiso   1.00
H844   H     0.22483   0.60796   0.37357   0.00000  Uiso   1.00
C845   C     0.28248   0.66639   0.47009   0.00000  Uiso   1.00
C846   C     0.43270   0.57731   0.45131   0.00000  Uiso   1.00
H847   H     0.45936   0.51133   0.39356   0.00000  Uiso   1.00
H848   H     0.46032   0.63543   0.27287   0.00000  Uiso   1.00
H849   H     0.23449   0.52533   0.31472   0.00000  Uiso   1.00
C850   C     0.30444   0.48998   0.23048   0.00000  Uiso   1.00
H851   H     0.24973   0.60373   0.41636   0.00000  Uiso   1.00
C852   C     0.46413   0.59085   0.41300   0.00000  Uiso   1.00
C853   C     0.30765   0.58991   0.23884   0.00000  Uiso   1.00
C854   C     0.24347   0.71148   0.36580   0.00000  Uiso   1.00
H855   H     0.45851   0.60542   0.39552   0.00000  Uiso   1.00
C856   C     0.30647   0.68465   0.45912   0.00000  Uiso   1.00
H857   H     0.49870   0.54813   0.42624   0.00000  Uiso   1.00
H858   H     0.44022   0.49920   0.42296   0.00000  Uiso   1.00
C859   C     0.50813   0.56318   0.41117   0.00000  Uiso   1.00
C860   C     0.52683   0.68949   0.26025   0.00000  Uiso   1.00
C861   C     0.50827   0.61273   0.39742   0.00000  Uiso   1.00
O862   O     0.52616   0.67181   0.43726   0.00000  Uiso   1.00
C863   C     0.37330   0.62509   0.28243   0.00000  Uiso   1.00
F864   F     0.31108   0.49067   0.40857   0.00000  Uiso   1.00
C865   C     0.44536   0.71974   0.34298   0.00000  Uiso   1.00
H866   H     0.24488   0.64957   0.45219   0.00000  Uiso   1.00
C867   C     0.25737   0.50444   0.24080   0.00000  Uiso   1.00
H868   H     0.53094   0.56201   0.41445   0.00000  Uiso   1.00
C869   C     0.40636   0.64145   0.24986   0.00000  Uiso   1.00
C870   C     0.42244   0.70655   0.38518   0.00000  Uiso   1.00
H871   H     0.40578   0.52039   0.37976   0.00000  Uiso   1.00
C872   C     0.50076   0.59840   0.44830   0.00000  Uiso   1.00
H873   H     0.45009   0.50213   0.34943   0.00000  Uiso   1.00
H874   H     0.40398   0.57142   0.24765   0.00000  Uiso   1.00
C875   C     0.51444   0.59335   0.26093   0.00000  Uiso   1.00
C876   C     0.53744   0.71069   0.30428   0.00000  Uiso   1.00
N877   N     0.29253   0.60518   0.24973   0.00000  Uiso   1.00
H878   H     0.33993   0.66923   0.24001   0.00000  Uiso   1.00
H879   H     0.36294   0.57426   0.45866   0.00000  Uiso   1.00
C880   C     0.25858   0.70092   0.24291   0.00000  Uiso   1.00
C881   C     0.30268   0.61907   0.42758   0.00000  Uiso   1.00
H882   H     0.26084   0.57642   0.44027   0.00000  Uiso   1.00
H883   H     0.43994   0.71183   0.29829   0.00000  Uiso   1.00
H884   H     0.42636   0.68483   0.39169   0.00000  Uiso   1.00
C885   C     0.25633   0.59882   0.43709   0.00000  Uiso   1.00
H886   H     0.27882   0.69415   0.28559   0.00000  Uiso   1.00
C887   C     0.27879   0.62028   0.44681   0.00000  Uiso   1.00
C888   C     0.46413   0.60927   0.23757   0.00000  Uiso   1.00
C889   C     0.28176   0.70553   0.26453   0.00000  Uiso   1.00
C890   C     0.51849   0.70553   0.28292   0.00000  Uiso   1.00
H891   H     0.30517   0.65624   0.23685   0.00000  Uiso   1.00
C892   C     0.50146   0.70815   0.46019   0.00000  Uiso   1.00
H893   H     0.46843   0.49611   0.26770   0.00000  Uiso   1.00
C894   C     0.33355   0.72014   0.25663   0.00000  Uiso   1.00
C895   C     0.54191   0.63624   0.32867   0.00000  Uiso   1.00
O896   O     0.49109   0.71413   0.28485   0.00000  Uiso   1.00
N897   N     0.33155   0.51242   0.29299   0.00000  Uiso   1.00
C898   C     0.54436   0.67156   0.45951   0.00000  Uiso   1.00
C899   C     0.40297   0.61368   0.43516   0.00000  Uiso   1.00
H900   H     0.24203   0.68600   0.29982   0.00000  Uiso   1.00
C901   C     0.31514   0.47818   0.38412   0.00000  Uiso   1.00
C902   C     0.40601   0.58476   0.44846   0.00000  Uiso   1.00
C903   C     0.33712   0.52321   0.22293   0.00000  Uiso   1.00
C904   C     0.24704   0.47893   0.23408   0.00000  Uiso   1.00
C905   C     0.28626   0.48108   0.31562   0.00000  Uiso   1.00
C906   C     0.55319   0.67749   0.25939   0.00000  Uiso   1.00
C907   C     0.44015   0.55343   0.46442   0.00000  Uiso   1.00
H908   H     0.23900   0.65018   0.29206   0.00000  Uiso   1.00
C909   C     0.23340   0.72066   0.24807   0.00000  Uiso   1.00
H910   H     0.39123   0.69275   0.23359   0.00000  Uiso   1.00
C911   C     0.30356   0.47349   0.33607   0.00000  Uiso   1.00
H912   H     0.23787   0.60226   0.44835   0.00000  Uiso   1.00
H913   H     0.36262   0.61969   0.45183   0.00000  Uiso   1.00
C914   C     0.48286   0.71838   0.31102   0.00000  Uiso   1.00
H915   H     0.33998   0.71588   0.27867   0.00000  Uiso   1.00
C916   C     0.52369   0.59307   0.46303   0.00000  Uiso   1.00
H917   H     0.46153   0.54846   0.46626   0.00000  Uiso   1.00
H918   H     0.43502   0.63694   0.45566   0.00000  Uiso   1.00
C919   C     0.46878   0.71487   0.41426   0.00000  Uiso   1.00
H920   H     0.46471   0.47667   0.40778   0.00000  Uiso   1.00
H921   H     0.40367   0.71351   0.39681   0.00000  Uiso   1.00
H922   H     0.27316   0.71036   0.42398   0.00000  Uiso   1.00
O923   O     0.33120   0.49594   0.22473   0.00000  Uiso   1.00
N924   N     0.55476   0.52924   0.47181   0.00000  Uiso   1.00
H925   H     0.52460   0.69945   0.58087   0.00000  Uiso   1.00
O926   O     0.37021   0.69703   0.60299   0.00000  Uiso   1.00
C927   C     0.47278   0.60573   0.48892   0.00000  Uiso   1.00
C928   C     0.31500   0.52344   0.56624   0.00000  Uiso   1.00
C929   C     0.41703   0.50176   0.64808   0.00000  Uiso   1.00
C930   C     0.41245   0.50296   0.59530   0.00000  Uiso   1.00
C931   C     0.30734   0.59862   0.57430   0.00000  Uiso   1.00
H932   H     0.32721   0.48812   0.65724   0.00000  Uiso   1.00
H933   H     0.55139   0.70019   0.65768   0.00000  Uiso   1.00
C934   C     0.22866   0.70315   0.51363   0.00000  Uiso   1.00
C935   C     0.38307   0.57345   0.64169   0.00000  Uiso   1.00
C936   C     0.47901   0.69883   0.68854   0.00000  Uiso   1.00
H937   H     0.39091   0.54575   0.67587   0.00000  Uiso   1.00
O938   O     0.52607   0.49971   0.68207   0.00000  Uiso   1.00
C939   C     0.48190   0.48268   0.68493   0.00000  Uiso   1.00
C940   C     0.31108   0.55821   0.69062   0.00000  Uiso   1.00
C941   C     0.31284   0.53436   0.70694   0.00000  Uiso   1.00
C942   C     0.24249   0.68200   0.49976   0.00000  Uiso   1.00
C943   C     0.44618   0.50574   0.65973   0.00000  Uiso   1.00
H944   H     0.36952   0.49064   0.59264   0.00000  Uiso   1.00
N945   N     0.31848   0.50150   0.55754   0.00000  Uiso   1.00
H946   H     0.39393   0.55476   0.57494   0.00000  Uiso   1.00
O947   O     0.54559   0.58927   0.50900   0.00000  Uiso   1.00
H948   H     0.44332   0.48802   0.56638   0.00000  Uiso   1.00
C949   C     0.32254   0.50787   0.66681   0.00000  Uiso   1.00
C950   C     0.30053   0.59348   0.51724   0.00000  Uiso   1.00
C951   C     0.36704   0.64246   0.68764   0.00000  Uiso   1.00
C952   C     0.31084   0.57678   0.61839   0.00000  Uiso   1.00
O953   O     0.30505   0.57018   0.53303   0.00000  Uiso   1.00
N954   N     0.30914   0.48783   0.49514   0.00000  Uiso   1.00
C955   C     0.31540   0.55145   0.60515   0.00000  Uiso   1.00
C956   C     0.38346   0.57518   0.61308   0.00000  Uiso   1.00
H957   H     0.29763   0.66235   0.52790   0.00000  Uiso   1.00
C958   C     0.30838   0.57198   0.56152   0.00000  Uiso   1.00
O959   O     0.42878   0.51052   0.48545   0.00000  Uiso   1.00
H960   H     0.46156   0.66053   0.66820   0.00000  Uiso   1.00
C961   C     0.54321   0.51650   0.66643   0.00000  Uiso   1.00
C962   C     0.36048   0.71945   0.61873   0.00000  Uiso   1.00
C963   C     0.26449   0.68861   0.48415   0.00000  Uiso   1.00
C964   C     0.31232   0.54929   0.57775   0.00000  Uiso   1.00
H965   H     0.32261   0.67937   0.47235   0.00000  Uiso   1.00
C966   C     0.47855   0.66653   0.68289   0.00000  Uiso   1.00
C967   C     0.52495   0.50085   0.59741   0.00000  Uiso   1.00
H968   H     0.49802   0.66094   0.67327   0.00000  Uiso   1.00
C969   C     0.54183   0.69046   0.48172   0.00000  Uiso   1.00
O970   O     0.51079   0.52513   0.59613   0.00000  Uiso   1.00
C971   C     0.52104   0.54373   0.57723   0.00000  Uiso   1.00
C972   C     0.51231   0.47718   0.60611   0.00000  Uiso   1.00
H973   H     0.43002   0.52150   0.55650   0.00000  Uiso   1.00
C974   C     0.40372   0.48381   0.67002   0.00000  Uiso   1.00
C975   C     0.39234   0.54794   0.65278   0.00000  Uiso   1.00
O976   O     0.37375   0.59475   0.65746   0.00000  Uiso   1.00
H977   H     0.48980   0.47585   0.60915   0.00000  Uiso   1.00
C978   C     0.29017   0.64192   0.48853   0.00000  Uiso   1.00
C979   C     0.31227   0.55646   0.66168   0.00000  Uiso   1.00
C980   C     0.30624   0.60151   0.60297   0.00000  Uiso   1.00
C981   C     0.27313   0.71611   0.48033   0.00000  Uiso   1.00
H982   H     0.45449   0.54675   0.64215   0.00000  Uiso   1.00
H983   H     0.44134   0.47646   0.61922   0.00000  Uiso   1.00
H984   H     0.38964   0.62877   0.47587   0.00000  Uiso   1.00
O985   O     0.32566   0.52980   0.62159   0.00000  Uiso   1.00
C986   C     0.39293   0.55246   0.59659   0.00000  Uiso   1.00
C987   C     0.47890   0.57035   0.58206   0.00000  Uiso   1.00
C988   C     0.49550   0.59963   0.50516   0.00000  Uiso   1.00
C989   C     0.36055   0.48135   0.50574   0.00000  Uiso   1.00
C990   C     0.53303   0.54255   0.65649   0.00000  Uiso   1.00
C991   C     0.45198   0.70543   0.70247   0.00000  Uiso   1.00
C992   C     0.36699   0.64432   0.65865   0.00000  Uiso   1.00
N993   N     0.36773   0.64025   0.71122   0.00000  Uiso   1.00
H994   H     0.47593   0.65456   0.70242   0.00000  Uiso   1.00
N995   N     0.30643   0.64996   0.62415   0.00000  Uiso   1.00
O996   O     0.30634   0.58052   0.64662   0.00000  Uiso   1.00
C997   C     0.30638   0.62862   0.61481   0.00000  Uiso   1.00
C998   C     0.46207   0.52788   0.65328   0.00000  Uiso   1.00
H999   H     0.52288   0.68638   0.63688   0.00000  Uiso   1.00
C1000  C     0.29738   0.64337   0.51592   0.00000  Uiso   1.00
C1001  C     0.52219   0.59453   0.49283   0.00000  Uiso   1.00
C1002  C     0.54830   0.54284   0.56690   0.00000  Uiso   1.00
C1003  C     0.33160   0.48490   0.49989   0.00000  Uiso   1.00
C1004  C     0.29444   0.59187   0.48990   0.00000  Uiso   1.00
C1005  C     0.37443   0.62277   0.61492   0.00000  Uiso   1.00
C1006  C     0.54301   0.58776   0.63337   0.00000  Uiso   1.00
C1007  C     0.50305   0.56373   0.56836   0.00000  Uiso   1.00
O1008  O     0.50552   0.55118   0.65846   0.00000  Uiso   1.00
C1009  C     0.55145   0.56039   0.64290   0.00000  Uiso   1.00
C1010  C     0.40766   0.49392   0.49515   0.00000  Uiso   1.00
C1011  C     0.40367   0.52894   0.60939   0.00000  Uiso   1.00
C1012  C     0.32101   0.53160   0.65003   0.00000  Uiso   1.00
C1013  C     0.38374   0.64924   0.57390   0.00000  Uiso   1.00
N1014  N     0.39090   0.64997   0.55131   0.00000  Uiso   1.00
C1015  C     0.37543   0.64817   0.60192   0.00000  Uiso   1.00
C1016  C     0.37194   0.61947   0.64326   0.00000  Uiso   1.00
C1017  C     0.40251   0.52700   0.63731   0.00000  Uiso   1.00
C1018  C     0.48284   0.71599   0.66259   0.00000  Uiso   1.00
N1019  N     0.53763   0.60974   0.62603   0.00000  Uiso   1.00
O1020  O     0.51924   0.70906   0.48196   0.00000  Uiso   1.00
C1021  C     0.38742   0.49106   0.58021   0.00000  Uiso   1.00
C1022  C     0.42081   0.48587   0.62090   0.00000  Uiso   1.00
H1023  H     0.45138   0.51933   0.58458   0.00000  Uiso   1.00
C1024  C     0.30092   0.61996   0.53132   0.00000  Uiso   1.00
O1025  O     0.49080   0.59612   0.53328   0.00000  Uiso   1.00
H1026  H     0.30697   0.57884   0.69821   0.00000  Uiso   1.00
C1027  C     0.36487   0.66946   0.64593   0.00000  Uiso   1.00
H1028  H     0.43471   0.69686   0.69122   0.00000  Uiso   1.00
C1029  C     0.45336   0.48409   0.67777   0.00000  Uiso   1.00
C1030  C     0.43585   0.50868   0.57497   0.00000  Uiso   1.00
N1031  N     0.45968   0.57592   0.59445   0.00000  Uiso   1.00
C1032  C     0.49931   0.50330   0.67680   0.00000  Uiso   1.00
C1033  C     0.36935   0.67139   0.61630   0.00000  Uiso   1.00
C1034  C     0.31777   0.50821   0.69542   0.00000  Uiso   1.00
O1035  O     0.30265   0.62305   0.55960   0.00000  Uiso   1.00
O1036  O     0.37835   0.59966   0.59901   0.00000  Uiso   1.00
C1037  C     0.48904   0.52758   0.66275   0.00000  Uiso   1.00
C1038  C     0.35430   0.71598   0.64793   0.00000  Uiso   1.00
C1039  C     0.41930   0.53572   0.47387   0.00000  Uiso   1.00
H1040  H     0.39392   0.49885   0.68465   0.00000  Uiso   1.00
C1041  C     0.53359   0.70559   0.64307   0.00000  Uiso   1.00
C1042  C     0.37934   0.49980   0.49355   0.00000  Uiso   1.00
C1043  C     0.53803   0.57679   0.53340   0.00000  Uiso   1.00
C1044  C     0.30879   0.48337   0.71314   0.00000  Uiso   1.00
H1045  H     0.38526   0.50285   0.56096   0.00000  Uiso   1.00
O1046  O     0.35816   0.69258   0.66208   0.00000  Uiso   1.00
H1047  H     0.45158   0.61168   0.49638   0.00000  Uiso   1.00
C1048  C     0.51092   0.57892   0.54551   0.00000  Uiso   1.00
C1049  C     0.28932   0.61659   0.47432   0.00000  Uiso   1.00
C1050  C     0.55323   0.50121   0.58840   0.00000  Uiso   1.00
H1051  H     0.27116   0.49333   0.66943   0.00000  Uiso   1.00
H1052  H     0.47494   0.70597   0.64453   0.00000  Uiso   1.00
C1053  C     0.50231   0.71071   0.70732   0.00000  Uiso   1.00
H1054  H     0.29146   0.57113   0.47994   0.00000  Uiso   1.00
H1055  H     0.23358   0.66001   0.49978   0.00000  Uiso   1.00
O1056  O     0.37068   0.52534   0.48182   0.00000  Uiso   1.00
H1057  H     0.41945   0.52422   0.71995   0.00000  Uiso   1.00
C1058  C     0.52015   0.71749   0.59356   0.00000  Uiso   1.00
H1059  H     0.49842   0.71549   0.60012   0.00000  Uiso   1.00
C1060  C     0.46188   0.65596   0.93665   0.00000  Uiso   1.00
H1061  H     0.29325   0.49232   0.75576   0.00000  Uiso   1.00
C1062  C     0.30244   0.52939   0.73475   0.00000  Uiso   1.00
C1063  C     0.39809   0.67773   0.96344   0.00000  Uiso   1.00
C1064  C     0.28706   0.68755   0.94440   0.00000  Uiso   1.00
C1065  C     0.24600   0.50090   0.86819   0.00000  Uiso   1.00
C1066  C     0.29406   0.62678   0.74345   0.00000  Uiso   1.00
C1067  C     0.28412   0.61945   0.82166   0.00000  Uiso   1.00
C1068  C     0.28164   0.56614   0.83049   0.00000  Uiso   1.00
H1069  H     0.35113   0.64400   0.76170   0.00000  Uiso   1.00
H1070  H     0.46523   0.54880   0.74159   0.00000  Uiso   1.00
C1071  C     0.32056   0.63161   0.79075   0.00000  Uiso   1.00
H1072  H     0.40248   0.56368   0.79828   0.00000  Uiso   1.00
H1073  H     0.48122   0.66125   0.92542   0.00000  Uiso   1.00
C1074  C     0.27185   0.64144   0.84146   0.00000  Uiso   1.00
O1075  O     0.51176   0.53457   0.75713   0.00000  Uiso   1.00
H1076  H     0.25940   0.54479   0.72759   0.00000  Uiso   1.00
C1077  C     0.26758   0.54438   0.84068   0.00000  Uiso   1.00
C1078  C     0.55179   0.63218   0.87919   0.00000  Uiso   1.00
C1079  C     0.28950   0.66798   0.77129   0.00000  Uiso   1.00
C1080  C     0.46292   0.50190   0.80645   0.00000  Uiso   1.00
H1081  H     0.54192   0.55007   0.90511   0.00000  Uiso   1.00
C1082  C     0.45547   0.70754   0.92561   0.00000  Uiso   1.00
H1083  H     0.49265   0.60611   0.94224   0.00000  Uiso   1.00
C1084  C     0.54481   0.56656   0.91942   0.00000  Uiso   1.00
C1085  C     0.24446   0.54835   0.85860   0.00000  Uiso   1.00
H1086  H     0.27030   0.49877   0.73027   0.00000  Uiso   1.00
H1087  H     0.28476   0.56854   0.74167   0.00000  Uiso   1.00
H1088  H     0.34629   0.52880   0.75249   0.00000  Uiso   1.00
H1089  H     0.30137   0.64237   0.73123   0.00000  Uiso   1.00
C1090  C     0.43216   0.71459   0.90610   0.00000  Uiso   1.00
O1091  O     0.38243   0.61275   0.84564   0.00000  Uiso   1.00
N1092  N     0.53319   0.69714   0.84265   0.00000  Uiso   1.00
H1093  H     0.37834   0.49322   0.88097   0.00000  Uiso   1.00
H1094  H     0.25256   0.63260   0.79336   0.00000  Uiso   1.00
C1095  C     0.37910   0.48314   0.83943   0.00000  Uiso   1.00
C1096  C     0.44940   0.68435   0.94585   0.00000  Uiso   1.00
H1097  H     0.44886   0.64665   0.92020   0.00000  Uiso   1.00
C1098  C     0.32558   0.53683   0.75482   0.00000  Uiso   1.00
O1099  O     0.33267   0.70452   0.93316   0.00000  Uiso   1.00
C1100  C     0.33594   0.61418   0.83268   0.00000  Uiso   1.00
O1101  O     0.47661   0.62757   0.87254   0.00000  Uiso   1.00
O1102  O     0.51282   0.50592   0.80925   0.00000  Uiso   1.00
C1103  C     0.43597   0.69927   0.87889   0.00000  Uiso   1.00
H1104  H     0.26882   0.54252   0.76191   0.00000  Uiso   1.00
C1105  C     0.42931   0.61767   0.85754   0.00000  Uiso   1.00
H1106  H     0.29380   0.68211   0.78891   0.00000  Uiso   1.00
H1107  H     0.41438   0.58045   0.76703   0.00000  Uiso   1.00
C1108  C     0.36056   0.69883   0.93846   0.00000  Uiso   1.00
C1109  C     0.36278   0.61709   0.82525   0.00000  Uiso   1.00
C1110  C     0.40902   0.70405   0.92462   0.00000  Uiso   1.00
H1111  H     0.44332   0.59955   0.95709   0.00000  Uiso   1.00
C1112  C     0.27662   0.70863   0.92819   0.00000  Uiso   1.00
C1113  C     0.29333   0.63762   0.77418   0.00000  Uiso   1.00
H1114  H     0.27266   0.61984   0.73721   0.00000  Uiso   1.00
C1115  C     0.23943   0.62118   0.96960   0.00000  Uiso   1.00
C1116  C     0.34769   0.63327   0.78169   0.00000  Uiso   1.00
C1117  C     0.27264   0.59257   0.83457   0.00000  Uiso   1.00
H1118  H     0.46362   0.48932   0.82547   0.00000  Uiso   1.00
C1119  C     0.31452   0.62396   0.81678   0.00000  Uiso   1.00
C1120  C     0.32536   0.66974   0.96999   0.00000  Uiso   1.00
H1121  H     0.29841   0.56508   0.81460   0.00000  Uiso   1.00
C1122  C     0.37028   0.68225   0.96123   0.00000  Uiso   1.00
C1123  C     0.44340   0.63311   0.80503   0.00000  Uiso   1.00
O1124  O     0.23298   0.52693   0.87284   0.00000  Uiso   1.00
C1125  C     0.49481   0.62051   0.95827   0.00000  Uiso   1.00
H1126  H     0.23898   0.61759   0.90043   0.00000  Uiso   1.00
H1127  H     0.33788   0.47799   0.85023   0.00000  Uiso   1.00
H1128  H     0.35027   0.51359   0.84870   0.00000  Uiso   1.00
H1129  H     0.26956   0.66251   0.83277   0.00000  Uiso   1.00
H1130  H     0.28793   0.64494   0.85588   0.00000  Uiso   1.00
C1131  C     0.27262   0.62337   0.79161   0.00000  Uiso   1.00
C1132  C     0.53988   0.64180   0.83074   0.00000  Uiso   1.00
C1133  C     0.23688   0.47871   0.88416   0.00000  Uiso   1.00
C1134  C     0.24633   0.63445   0.88733   0.00000  Uiso   1.00
C1135  C     0.26696   0.49574   0.84862   0.00000  Uiso   1.00
C1136  C     0.43840   0.50907   0.79290   0.00000  Uiso   1.00
C1137  C     0.40795   0.53626   0.76347   0.00000  Uiso   1.00
C1138  C     0.48758   0.52593   0.77091   0.00000  Uiso   1.00
H1139  H     0.40830   0.55801   0.72378   0.00000  Uiso   1.00
H1140  H     0.37156   0.51894   0.78580   0.00000  Uiso   1.00
O1141  O     0.49313   0.63854   0.81580   0.00000  Uiso   1.00
C1142  C     0.48825   0.51001   0.79530   0.00000  Uiso   1.00
H1143  H     0.39135   0.52708   0.83116   0.00000  Uiso   1.00
H1144  H     0.51405   0.63108   0.95556   0.00000  Uiso   1.00
C1145  C     0.44870   0.64045   0.77818   0.00000  Uiso   1.00
H1146  H     0.39876   0.69010   0.75142   0.00000  Uiso   1.00
H1147  H     0.52910   0.58281   0.91550   0.00000  Uiso   1.00
H1148  H     0.26742   0.60267   0.78598   0.00000  Uiso   1.00
O1149  O     0.39594   0.63231   0.79132   0.00000  Uiso   1.00
C1150  C     0.25029   0.59704   0.85058   0.00000  Uiso   1.00
C1151  C     0.38924   0.70144   0.76814   0.00000  Uiso   1.00
C1152  C     0.51157   0.63769   0.83697   0.00000  Uiso   1.00
H1153  H     0.38557   0.49432   0.76069   0.00000  Uiso   1.00
H1154  H     0.42218   0.48166   0.72479   0.00000  Uiso   1.00
C1155  C     0.53629   0.53079   0.77213   0.00000  Uiso   1.00
C1156  C     0.53036   0.71769   0.74896   0.00000  Uiso   1.00
H1157  H     0.49293   0.69377   0.74756   0.00000  Uiso   1.00
C1158  C     0.26906   0.66797   0.95630   0.00000  Uiso   1.00
C1159  C     0.40795   0.62105   0.83890   0.00000  Uiso   1.00
C1160  C     0.50356   0.63282   0.86424   0.00000  Uiso   1.00
C1161  C     0.27708   0.54738   0.74124   0.00000  Uiso   1.00
N1162  N     0.41798   0.60174   0.90611   0.00000  Uiso   1.00
H1163  H     0.33133   0.60304   0.85133   0.00000  Uiso   1.00
C1164  C     0.39167   0.51087   0.77621   0.00000  Uiso   1.00
C1165  C     0.40086   0.56374   0.77625   0.00000  Uiso   1.00
H1166  H     0.47398   0.70117   0.91556   0.00000  Uiso   1.00
N1167  N     0.45484   0.64557   0.75598   0.00000  Uiso   1.00
C1168  C     0.31570   0.68752   0.94872   0.00000  Uiso   1.00
H1169  H     0.23280   0.65113   0.89127   0.00000  Uiso   1.00
O1170  O     0.53378   0.71622   0.77709   0.00000  Uiso   1.00
H1171  H     0.26839   0.67335   0.76364   0.00000  Uiso   1.00
C1172  C     0.40883   0.49799   0.79950   0.00000  Uiso   1.00
C1173  C     0.40422   0.53725   0.73161   0.00000  Uiso   1.00
O1174  O     0.27585   0.51811   0.83276   0.00000  Uiso   1.00
C1175  C     0.46531   0.63284   0.82371   0.00000  Uiso   1.00
C1176  C     0.46802   0.63782   0.96110   0.00000  Uiso   1.00
C1177  C     0.53674   0.51771   0.79810   0.00000  Uiso   1.00
C1178  C     0.45714   0.62621   0.85095   0.00000  Uiso   1.00
H1179  H     0.30641   0.60801   0.74226   0.00000  Uiso   1.00
C1180  C     0.36905   0.62723   0.79912   0.00000  Uiso   1.00
H1181  H     0.41646   0.50723   0.84241   0.00000  Uiso   1.00
H1182  H     0.38042   0.57168   0.76962   0.00000  Uiso   1.00
H1183  H     0.44093   0.67800   0.88151   0.00000  Uiso   1.00
H1184  H     0.39959   0.69324   0.78765   0.00000  Uiso   1.00
C1185  C     0.24669   0.62784   0.85593   0.00000  Uiso   1.00
H1186  H     0.41684   0.70260   0.86626   0.00000  Uiso   1.00
H1187  H     0.51858   0.62489   0.90549   0.00000  Uiso   1.00
H1188  H     0.26660   0.64249   0.89382   0.00000  Uiso   1.00
C1189  C     0.52466   0.63009   0.88405   0.00000  Uiso   1.00
C1190  C     0.42325   0.60925   0.88423   0.00000  Uiso   1.00
H1191  H     0.34248   0.49338   0.81651   0.00000  Uiso   1.00
H1192  H     0.32093   0.53164   0.77709   0.00000  Uiso   1.00
H1193  H     0.32650   0.55944   0.75319   0.00000  Uiso   1.00
C1194  C     0.38142   0.71014   0.92200   0.00000  Uiso   1.00
C1195  C     0.34951   0.49321   0.83811   0.00000  Uiso   1.00
H1196  H     0.30428   0.67547   0.75533   0.00000  Uiso   1.00
C1197  C     0.46264   0.53509   0.75939   0.00000  Uiso   1.00
C1198  C     0.41562   0.62841   0.81255   0.00000  Uiso   1.00
C1199  C     0.43733   0.52863   0.77178   0.00000  Uiso   1.00
C1200  C     0.23489   0.57532   0.86234   0.00000  Uiso   1.00
C1201  C     0.54656   0.71233   0.83035   0.00000  Uiso   1.00
C1202  C     0.39934   0.50585   0.82779   0.00000  Uiso   1.00
C1203  C     0.41777   0.68618   0.94605   0.00000  Uiso   1.00
H1204  H     0.45141   0.70978   0.86813   0.00000  Uiso   1.00
C1205  C     0.50590   0.70846   0.73642   0.00000  Uiso   1.00
H1206  H     0.36797   0.69389   0.77117   0.00000  Uiso   1.00
O1207  O     0.24019   0.66682   0.94911   0.00000  Uiso   1.00
H1208  H     0.38286   0.53158   0.72446   0.00000  Uiso   1.00
C1209  C     0.44558   0.61777   0.97078   0.00000  Uiso   1.00
H1210  H     0.54119   0.55690   0.93997   0.00000  Uiso   1.00
C1211  C     0.29295   0.49956   0.73482   0.00000  Uiso   1.00
H1212  H     0.54548   0.65147   0.81092   0.00000  Uiso   1.00
C1213  C     0.22789   0.64108   0.95233   0.00000  Uiso   1.00
H1214  H     0.40849   0.47536   0.87585   0.00000  Uiso   1.00
H1215  H     0.54899   0.47637   0.73720   0.00000  Uiso   1.00
C1216  C     0.38642   0.47563   0.86970   0.00000  Uiso   1.00
H1217  H     0.42563   0.62851   0.96865   0.00000  Uiso   1.00
H1218  H     0.45089   0.69432   0.72256   0.00000  Uiso   1.00
C1219  C     0.40299   0.65399   1.10044   0.00000  Uiso   1.00
H1220  H     0.48408   0.63686   1.01716   0.00000  Uiso   1.00
H1221  H     0.48985   0.49789   1.10973   0.00000  Uiso   1.00
C1222  C     0.37674   0.56983   1.04997   0.00000  Uiso   1.00
H1223  H     0.40269   0.66380   0.98054   0.00000  Uiso   1.00
H1224  H     0.47804   0.58791   1.15358   0.00000  Uiso   1.00
H1225  H     0.28947   0.63187   1.16553   0.00000  Uiso   1.00
N1226  N     0.39445   0.49311   1.18867   0.00000  Uiso   1.00
C1227  C     0.25889   0.51457   1.03743   0.00000  Uiso   1.00
H1228  H     0.34205   0.71009   1.19945   0.00000  Uiso   1.00
H1229  H     0.32162   0.66417   1.06501   0.00000  Uiso   1.00
C1230  C     0.35448   0.67595   1.11215   0.00000  Uiso   1.00
C1231  C     0.44945   0.60053   1.10295   0.00000  Uiso   1.00
C1232  C     0.30890   0.72178   1.17260   0.00000  Uiso   1.00
O1233  O     0.34852   0.70512   1.03983   0.00000  Uiso   1.00
H1234  H     0.45366   0.61126   1.12268   0.00000  Uiso   1.00
O1235  O     0.35125   0.67106   0.97907   0.00000  Uiso   1.00
H1236  H     0.28613   0.66697   1.16525   0.00000  Uiso   1.00
C1237  C     0.38290   0.66449   1.12201   0.00000  Uiso   1.00
O1238  O     0.55402   0.68474   1.09287   0.00000  Uiso   1.00
C1239  C     0.46625   0.58091   1.19811   0.00000  Uiso   1.00
C1240  C     0.43481   0.64371   1.20946   0.00000  Uiso   1.00
H1241  H     0.30948   0.64997   1.13817   0.00000  Uiso   1.00
N1242  N     0.24434   0.48359   1.14091   0.00000  Uiso   1.00
C1243  C     0.26714   0.59205   1.11982   0.00000  Uiso   1.00
O1244  O     0.48651   0.55784   1.05357   0.00000  Uiso   1.00
C1245  C     0.34777   0.57876   1.20901   0.00000  Uiso   1.00
C1246  C     0.30853   0.68119   1.05836   0.00000  Uiso   1.00
N1247  N     0.32546   0.61343   1.01473   0.00000  Uiso   1.00
H1248  H     0.55451   0.68978   1.19319   0.00000  Uiso   1.00
H1249  H     0.23759   0.58258   0.98717   0.00000  Uiso   1.00
C1250  C     0.37815   0.50980   1.19620   0.00000  Uiso   1.00
C1251  C     0.39371   0.61542   1.02838   0.00000  Uiso   1.00
H1252  H     0.42904   0.59990   1.18245   0.00000  Uiso   1.00
H1253  H     0.40818   0.63264   1.03279   0.00000  Uiso   1.00
H1254  H     0.37628   0.55728   1.06926   0.00000  Uiso   1.00
H1255  H     0.35901   0.69413   1.09821   0.00000  Uiso   1.00
C1256  C     0.39109   0.59737   1.05404   0.00000  Uiso   1.00
H1257  H     0.44884   0.49707   1.08258   0.00000  Uiso   1.00
C1258  C     0.26841   0.61994   1.11246   0.00000  Uiso   1.00
C1259  C     0.53585   0.56481   1.04540   0.00000  Uiso   1.00
C1260  C     0.39590   0.68833   1.13859   0.00000  Uiso   1.00
O1261  O     0.26548   0.62518   0.98228   0.00000  Uiso   1.00
C1262  C     0.26553   0.52265   1.00977   0.00000  Uiso   1.00
H1263  H     0.55143   0.49302   1.02438   0.00000  Uiso   1.00
C1264  C     0.48656   0.70156   1.06990   0.00000  Uiso   1.00
H1265  H     0.42678   0.48961   1.12518   0.00000  Uiso   1.00
C1266  C     0.44035   0.57583   1.05349   0.00000  Uiso   1.00
N1267  N     0.53119   0.54881   0.99562   0.00000  Uiso   1.00
H1268  H     0.37457   0.62383   1.02118   0.00000  Uiso   1.00
H1269  H     0.35642   0.57228   1.04358   0.00000  Uiso   1.00
C1270  C     0.37737   0.61282   1.07756   0.00000  Uiso   1.00
H1271  H     0.38792   0.55717   1.03484   0.00000  Uiso   1.00
C1272  C     0.42461   0.60608   1.08970   0.00000  Uiso   1.00
H1273  H     0.36702   0.63061   1.06897   0.00000  Uiso   1.00
H1274  H     0.23300   0.71811   1.08340   0.00000  Uiso   1.00
H1275  H     0.26605   0.58606   1.14195   0.00000  Uiso   1.00
H1276  H     0.34333   0.66017   1.10178   0.00000  Uiso   1.00
H1277  H     0.24620   0.68176   1.11322   0.00000  Uiso   1.00
C1278  C     0.26507   0.64453   1.13025   0.00000  Uiso   1.00
C1279  C     0.30183   0.71827   1.02658   0.00000  Uiso   1.00
C1280  C     0.28034   0.67692   1.06173   0.00000  Uiso   1.00
H1281  H     0.27017   0.61125   1.04410   0.00000  Uiso   1.00
H1282  H     0.36078   0.60042   1.08885   0.00000  Uiso   1.00
C1283  C     0.24354   0.48133   1.07007   0.00000  Uiso   1.00
C1284  C     0.29013   0.64882   1.15041   0.00000  Uiso   1.00
C1285  C     0.28044   0.64769   0.97360   0.00000  Uiso   1.00
O1286  O     0.26678   0.54282   1.10654   0.00000  Uiso   1.00
C1287  C     0.48710   0.70055   1.09880   0.00000  Uiso   1.00
H1288  H     0.40367   0.66409   1.08092   0.00000  Uiso   1.00
N1289  N     0.27129   0.52770   0.98689   0.00000  Uiso   1.00
C1290  C     0.46238   0.68558   0.97357   0.00000  Uiso   1.00
N1291  N     0.49390   0.67938   1.22057   0.00000  Uiso   1.00
C1292  C     0.41934   0.59125   1.06533   0.00000  Uiso   1.00
H1293  H     0.23313   0.66179   1.15981   0.00000  Uiso   1.00
H1294  H     0.46272   0.53548   1.20793   0.00000  Uiso   1.00
H1295  H     0.40021   0.49308   1.10099   0.00000  Uiso   1.00
C1296  C     0.41128   0.47801   1.11329   0.00000  Uiso   1.00
C1297  C     0.26404   0.66842   1.10991   0.00000  Uiso   1.00
C1298  C     0.46772   0.55038   1.19195   0.00000  Uiso   1.00
C1299  C     0.24640   0.49085   1.11783   0.00000  Uiso   1.00
O1300  O     0.35140   0.60621   1.20109   0.00000  Uiso   1.00
H1301  H     0.40378   0.57266   1.12976   0.00000  Uiso   1.00
C1302  C     0.49369   0.48362   1.06699   0.00000  Uiso   1.00
C1303  C     0.36391   0.63411   1.16351   0.00000  Uiso   1.00
C1304  C     0.54135   0.57936   1.10135   0.00000  Uiso   1.00
C1305  C     0.46695   0.71025   0.98872   0.00000  Uiso   1.00
H1306  H     0.35225   0.65008   1.17406   0.00000  Uiso   1.00
C1307  C     0.39049   0.61595   1.12631   0.00000  Uiso   1.00
C1308  C     0.37908   0.63851   1.13915   0.00000  Uiso   1.00
H1309  H     0.46915   0.47828   0.98536   0.00000  Uiso   1.00
H1310  H     0.42416   0.65749   1.10747   0.00000  Uiso   1.00
H1311  H     0.44777   0.61169   0.99121   0.00000  Uiso   1.00
C1312  C     0.53798   0.64159   1.06096   0.00000  Uiso   1.00
H1313  H     0.39732   0.70701   1.12368   0.00000  Uiso   1.00
C1314  C     0.39186   0.59015   1.13875   0.00000  Uiso   1.00
H1315  H     0.48383   0.61722   1.17714   0.00000  Uiso   1.00
C1316  C     0.26288   0.65835   1.08022   0.00000  Uiso   1.00
H1317  H     0.40363   0.60305   1.01144   0.00000  Uiso   1.00
C1318  C     0.26987   0.62829   1.08522   0.00000  Uiso   1.00
N1319  N     0.52169   0.62610   1.06932   0.00000  Uiso   1.00
O1320  O     0.48737   0.67692   1.05437   0.00000  Uiso   1.00
C1321  C     0.25921   0.52539   1.08466   0.00000  Uiso   1.00
O1322  O     0.27231   0.55921   1.05098   0.00000  Uiso   1.00
C1323  C     0.26189   0.69231   1.04593   0.00000  Uiso   1.00
C1324  C     0.27207   0.57887   1.07242   0.00000  Uiso   1.00
C1325  C     0.48258   0.59416   1.17525   0.00000  Uiso   1.00
C1326  C     0.38043   0.58795   1.16456   0.00000  Uiso   1.00
C1327  C     0.39983   0.62334   1.09848   0.00000  Uiso   1.00
H1328  H     0.43730   0.56743   1.03156   0.00000  Uiso   1.00
C1329  C     0.47640   0.70668   1.01441   0.00000  Uiso   1.00
C1330  C     0.30152   0.70757   1.21912   0.00000  Uiso   1.00
C1331  C     0.46897   0.58290   1.09289   0.00000  Uiso   1.00
C1332  C     0.47633   0.65740   1.01109   0.00000  Uiso   1.00
N1333  N     0.48168   0.65278   1.12166   0.00000  Uiso   1.00
C1334  C     0.35952   0.53026   1.20541   0.00000  Uiso   1.00
C1335  C     0.53141   0.50600   1.09208   0.00000  Uiso   1.00
C1336  C     0.24899   0.49878   1.09021   0.00000  Uiso   1.00
C1337  C     0.43615   0.59046   1.20141   0.00000  Uiso   1.00
H1338  H     0.28249   0.68247   1.11452   0.00000  Uiso   1.00
C1339  C     0.27240   0.60785   1.06553   0.00000  Uiso   1.00
C1340  C     0.48488   0.67487   1.11166   0.00000  Uiso   1.00
C1341  C     0.31993   0.70000   1.04099   0.00000  Uiso   1.00
C1342  C     0.51469   0.57403   1.09186   0.00000  Uiso   1.00
C1343  C     0.47072   0.65960   0.98355   0.00000  Uiso   1.00
C1344  C     0.30785   0.64961   0.98115   0.00000  Uiso   1.00
H1345  H     0.38224   0.69517   1.15563   0.00000  Uiso   1.00
C1346  C     0.51238   0.56506   1.06378   0.00000  Uiso   1.00
C1347  C     0.53284   0.55626   1.01824   0.00000  Uiso   1.00
C1348  C     0.39650   0.67898   1.21699   0.00000  Uiso   1.00
H1349  H     0.34172   0.68323   1.12979   0.00000  Uiso   1.00
H1350  H     0.49140   0.50634   0.99258   0.00000  Uiso   1.00
C1351  C     0.54849   0.50430   1.06730   0.00000  Uiso   1.00
H1352  H     0.54383   0.69122   1.14594   0.00000  Uiso   1.00
C1353  C     0.36308   0.55669   1.19708   0.00000  Uiso   1.00
N1354  N     0.54860   0.59359   1.15161   0.00000  Uiso   1.00
C1355  C     0.26321   0.53305   1.05705   0.00000  Uiso   1.00
C1356  C     0.22825   0.59524   0.97272   0.00000  Uiso   1.00
H1357  H     0.41684   0.68464   1.14649   0.00000  Uiso   1.00
O1358  O     0.49254   0.57742   1.10952   0.00000  Uiso   1.00
C1359  C     0.48105   0.68000   1.02606   0.00000  Uiso   1.00
C1360  C     0.31785   0.63008   1.00029   0.00000  Uiso   1.00
O1361  O     0.38300   0.56235   1.17642   0.00000  Uiso   1.00
C1362  C     0.46623   0.57293   1.06564   0.00000  Uiso   1.00
N1363  N     0.41850   0.70555   1.05435   0.00000  Uiso   1.00
C1364  C     0.24838   0.48882   1.04295   0.00000  Uiso   1.00
C1365  C     0.36579   0.60964   1.17742   0.00000  Uiso   1.00
C1366  C     0.27026   0.57096   1.10020   0.00000  Uiso   1.00
H1367  H     0.37773   0.66895   1.20939   0.00000  Uiso   1.00
H1368  H     0.42211   0.64210   1.19012   0.00000  Uiso   1.00
H1369  H     0.23958   0.62422   1.16104   0.00000  Uiso   1.00
C1370  C     0.54485   0.58767   1.12932   0.00000  Uiso   1.00
H1371  H     0.48813   0.54393   1.18367   0.00000  Uiso   1.00
H1372  H     0.42316   0.57331   1.20883   0.00000  Uiso   1.00
C1373  C     0.47911   0.48890   1.00255   0.00000  Uiso   1.00
H1374  H     0.40594   0.69091   1.20021   0.00000  Uiso   1.00
H1375  H     0.50383   0.58880   1.17798   0.00000  Uiso   1.00
C1376  C     0.51077   0.48220   1.04341   0.00000  Uiso   1.00
C1377  C     0.23329   0.65902   1.06894   0.00000  Uiso   1.00
C1378  C     0.26174   0.71763   1.19161   0.00000  Uiso   1.00
H1379  H     0.46531   0.50176   1.01491   0.00000  Uiso   1.00
H1380  H     0.45215   0.54359   1.17595   0.00000  Uiso   1.00
H1381  H     0.23516   0.66625   1.00788   0.00000  Uiso   1.00
C1382  C     0.50516   0.49777   1.09052   0.00000  Uiso   1.00
H1383  H     0.45527   0.65151   1.20511   0.00000  Uiso   1.00
C1384  C     0.23775   0.64273   1.14675   0.00000  Uiso   1.00
N1385  N     0.55050   0.48655   1.18268   0.00000  Uiso   1.00
O1386  O     0.54214   0.51346   1.11788   0.00000  Uiso   1.00
C1387  C     0.44212   0.47648   1.07380   0.00000  Uiso   1.00
C1388  C     0.31953   0.71515   1.19801   0.00000  Uiso   1.00
C1389  C     0.23126   0.68469   1.05092   0.00000  Uiso   1.00
H1390  H     0.42938   0.47974   1.05550   0.00000  Uiso   1.00
C1391  C     0.53815   0.49155   1.04404   0.00000  Uiso   1.00
C1392  C     0.27358   0.71367   1.02901   0.00000  Uiso   1.00
C1393  C     0.27293   0.70945   1.21702   0.00000  Uiso   1.00
H1394  H     0.22695   0.64097   1.05666   0.00000  Uiso   1.00
C1395  C     0.40408   0.72074   1.04484   0.00000  Uiso   1.00
H1396  H     0.49784   0.60758   0.97706   0.00000  Uiso   1.00
H1397  H     0.23955   0.72138   1.18822   0.00000  Uiso   1.00
H1398  H     0.23713   0.66918   1.21814   0.00000  Uiso   1.00
C1399  C     0.43697   0.61429   1.22127   0.00000  Uiso   1.00
H1400  H     0.45759   0.94163   0.44084   0.00000  Uiso   1.00
C1401  C     0.41997   0.92773   0.33986   0.00000  Uiso   1.00
C1402  C     0.54287   0.79285   0.46592   0.00000  Uiso   1.00
H1403  H     0.45797   0.76461   0.39496   0.00000  Uiso   1.00
H1404  H     0.54061   0.73789   0.44598   0.00000  Uiso   1.00
C1405  C     0.49134   0.72943   0.35842   0.00000  Uiso   1.00
H1406  H     0.55427   0.82315   0.42360   0.00000  Uiso   1.00
H1407  H     0.54600   0.74323   0.40973   0.00000  Uiso   1.00
O1408  O     0.52954   0.72306   0.32924   0.00000  Uiso   1.00
H1409  H     0.54227   0.76777   0.37414   0.00000  Uiso   1.00
C1410  C     0.44788   0.93303   0.46042   0.00000  Uiso   1.00
H1411  H     0.45439   0.87663   0.25763   0.00000  Uiso   1.00
C1412  C     0.24930   0.74243   0.32742   0.00000  Uiso   1.00
O1413  O     0.54857   0.96407   0.25499   0.00000  Uiso   1.00
C1414  C     0.46594   0.84615   0.36646   0.00000  Uiso   1.00
C1415  C     0.53910   0.91546   0.26472   0.00000  Uiso   1.00
N1416  N     0.42041   0.86990   0.45850   0.00000  Uiso   1.00
H1417  H     0.48113   0.83962   0.31422   0.00000  Uiso   1.00
C1418  C     0.53100   0.86633   0.27385   0.00000  Uiso   1.00
H1419  H     0.42654   0.88640   0.27968   0.00000  Uiso   1.00
C1420  C     0.32711   0.76441   0.35797   0.00000  Uiso   1.00
C1421  C     0.30900   0.78232   0.30736   0.00000  Uiso   1.00
H1422  H     0.39323   0.77221   0.24060   0.00000  Uiso   1.00
C1423  C     0.44934   0.85419   0.34021   0.00000  Uiso   1.00
C1424  C     0.40735   0.94686   0.43431   0.00000  Uiso   1.00
H1425  H     0.42166   0.76181   0.39147   0.00000  Uiso   1.00
C1426  C     0.53866   0.75414   0.42884   0.00000  Uiso   1.00
H1427  H     0.27819   0.74578   0.43435   0.00000  Uiso   1.00
C1428  C     0.55057   0.80198   0.41508   0.00000  Uiso   1.00
C1429  C     0.33645   0.75522   0.38365   0.00000  Uiso   1.00
C1430  C     0.47790   0.87120   0.41116   0.00000  Uiso   1.00
H1431  H     0.51675   0.90186   0.45317   0.00000  Uiso   1.00
H1432  H     0.43040   0.79578   0.43967   0.00000  Uiso   1.00
H1433  H     0.50516   0.73220   0.37510   0.00000  Uiso   1.00
C1434  C     0.41883   0.83636   0.30581   0.00000  Uiso   1.00
H1435  H     0.44521   0.91152   0.45989   0.00000  Uiso   1.00
C1436  C     0.46357   0.72620   0.36425   0.00000  Uiso   1.00
H1437  H     0.44568   0.77864   0.47089   0.00000  Uiso   1.00
H1438  H     0.37454   0.72533   0.35763   0.00000  Uiso   1.00
H1439  H     0.44497   0.81257   0.25686   0.00000  Uiso   1.00
C1440  C     0.52904   0.89025   0.25649   0.00000  Uiso   1.00
C1441  C     0.33381   0.79225   0.31808   0.00000  Uiso   1.00
H1442  H     0.47513   0.87460   0.30690   0.00000  Uiso   1.00
C1443  C     0.46533   0.85554   0.31210   0.00000  Uiso   1.00
H1444  H     0.50506   0.88162   0.34686   0.00000  Uiso   1.00
C1445  C     0.30146   0.79045   0.28007   0.00000  Uiso   1.00
N1446  N     0.29556   0.79669   0.25762   0.00000  Uiso   1.00
H1447  H     0.52294   0.81907   0.36385   0.00000  Uiso   1.00
H1448  H     0.42317   0.86223   0.25529   0.00000  Uiso   1.00
C1449  C     0.43359   0.93895   0.36268   0.00000  Uiso   1.00
H1450  H     0.40837   0.89188   0.31847   0.00000  Uiso   1.00
C1451  C     0.43783   0.87009   0.26923   0.00000  Uiso   1.00
C1452  C     0.44539   0.84594   0.28877   0.00000  Uiso   1.00
H1453  H     0.48767   0.89035   0.42018   0.00000  Uiso   1.00
C1454  C     0.53677   0.93862   0.24931   0.00000  Uiso   1.00
C1455  C     0.50170   0.72278   0.33243   0.00000  Uiso   1.00
H1456  H     0.46662   0.79047   0.44215   0.00000  Uiso   1.00
C1457  C     0.41210   0.74382   0.44416   0.00000  Uiso   1.00
N1458  N     0.53343   0.84634   0.28753   0.00000  Uiso   1.00
C1459  C     0.45802   0.82131   0.27406   0.00000  Uiso   1.00
C1460  C     0.42265   0.89968   0.33352   0.00000  Uiso   1.00
H1461  H     0.52310   0.82022   0.32760   0.00000  Uiso   1.00
H1462  H     0.52224   0.86875   0.37508   0.00000  Uiso   1.00
O1463  O     0.26751   0.75677   0.31151   0.00000  Uiso   1.00
C1464  C     0.52919   0.89332   0.47080   0.00000  Uiso   1.00
C1465  C     0.43936   0.88238   0.34848   0.00000  Uiso   1.00
C1466  C     0.47564   0.87330   0.38038   0.00000  Uiso   1.00
C1467  C     0.34257   0.78443   0.34409   0.00000  Uiso   1.00
C1468  C     0.42406   0.83638   0.33426   0.00000  Uiso   1.00
H1469  H     0.45703   0.87009   0.41827   0.00000  Uiso   1.00
C1470  C     0.30265   0.75415   0.34811   0.00000  Uiso   1.00
C1471  C     0.23180   0.74816   0.24052   0.00000  Uiso   1.00
O1472  O     0.35164   0.80433   0.29913   0.00000  Uiso   1.00
O1473  O     0.50012   0.86364   0.22523   0.00000  Uiso   1.00
H1474  H     0.25083   0.75899   0.23421   0.00000  Uiso   1.00
C1475  C     0.42079   0.94842   0.46374   0.00000  Uiso   1.00
H1476  H     0.48505   0.83419   0.36276   0.00000  Uiso   1.00
C1477  C     0.38130   0.81037   0.33998   0.00000  Uiso   1.00
C1478  C     0.45503   0.89449   0.36967   0.00000  Uiso   1.00
O1479  O     0.28763   0.73197   0.36077   0.00000  Uiso   1.00
H1480  H     0.46417   0.92946   0.39477   0.00000  Uiso   1.00
H1481  H     0.47806   0.82681   0.26522   0.00000  Uiso   1.00
C1482  C     0.52821   0.80675   0.34538   0.00000  Uiso   1.00
C1483  C     0.51441   0.88822   0.23174   0.00000  Uiso   1.00
O1484  O     0.36569   0.79503   0.35769   0.00000  Uiso   1.00
H1485  H     0.39999   0.75043   0.35539   0.00000  Uiso   1.00
C1486  C     0.37534   0.81443   0.31104   0.00000  Uiso   1.00
H1487  H     0.39070   0.82679   0.27267   0.00000  Uiso   1.00
C1488  C     0.50470   0.88151   0.37051   0.00000  Uiso   1.00
C1489  C     0.45118   0.92200   0.37753   0.00000  Uiso   1.00
C1490  C     0.39617   0.82521   0.29400   0.00000  Uiso   1.00
C1491  C     0.29258   0.76379   0.32184   0.00000  Uiso   1.00
O1492  O     0.40204   0.94349   0.32366   0.00000  Uiso   1.00
H1493  H     0.38688   0.95826   0.42973   0.00000  Uiso   1.00
C1494  C     0.40473   0.82274   0.35071   0.00000  Uiso   1.00
H1495  H     0.51031   0.90210   0.37709   0.00000  Uiso   1.00
H1496  H     0.51387   0.78843   0.34080   0.00000  Uiso   1.00
H1497  H     0.49045   0.85300   0.41828   0.00000  Uiso   1.00
H1498  H     0.45340   0.83155   0.38002   0.00000  Uiso   1.00
C1499  C     0.44032   0.75321   0.43323   0.00000  Uiso   1.00
H1500  H     0.46101   0.80280   0.28838   0.00000  Uiso   1.00
H1501  H     0.41185   0.81981   0.37173   0.00000  Uiso   1.00
C1502  C     0.39426   0.72912   0.34802   0.00000  Uiso   1.00
N1503  N     0.34593   0.74743   0.40384   0.00000  Uiso   1.00
H1504  H     0.42891   0.76743   0.23554   0.00000  Uiso   1.00
H1505  H     0.39432   0.75639   0.43683   0.00000  Uiso   1.00
H1506  H     0.40857   0.92327   0.42917   0.00000  Uiso   1.00
C1507  C     0.28799   0.72493   0.43423   0.00000  Uiso   1.00
C1508  C     0.55291   0.78124   0.43849   0.00000  Uiso   1.00
O1509  O     0.43110   0.96598   0.36967   0.00000  Uiso   1.00
H1510  H     0.28384   0.72761   0.26870   0.00000  Uiso   1.00
C1511  C     0.44593   0.78027   0.44649   0.00000  Uiso   1.00
H1512  H     0.52933   0.80496   0.40782   0.00000  Uiso   1.00
C1513  C     0.48037   0.72791   0.46093   0.00000  Uiso   1.00
H1514  H     0.51617   0.75764   0.42729   0.00000  Uiso   1.00
H1515  H     0.52449   0.80704   0.46747   0.00000  Uiso   1.00
H1516  H     0.32980   0.74312   0.25408   0.00000  Uiso   1.00
C1517  C     0.46388   0.73233   0.43823   0.00000  Uiso   1.00
C1518  C     0.39583   0.96985   0.33387   0.00000  Uiso   1.00
C1519  C     0.43995   0.75285   0.40042   0.00000  Uiso   1.00
N1520  N     0.35379   0.97071   0.27695   0.00000  Uiso   1.00
C1521  C     0.40770   0.76299   0.22613   0.00000  Uiso   1.00
O1522  O     0.55173   0.91571   0.29179   0.00000  Uiso   1.00
H1523  H     0.45859   0.96457   0.28318   0.00000  Uiso   1.00
C1524  C     0.52108   0.93710   0.22510   0.00000  Uiso   1.00
H1525  H     0.42137   0.95822   0.42157   0.00000  Uiso   1.00
H1526  H     0.55418   0.90282   0.41293   0.00000  Uiso   1.00
C1527  C     0.44826   0.72441   0.39236   0.00000  Uiso   1.00
C1528  C     0.26046   0.72947   0.35209   0.00000  Uiso   1.00
H1529  H     0.33895   0.73320   0.46237   0.00000  Uiso   1.00
H1530  H     0.39190   0.72907   0.32489   0.00000  Uiso   1.00
H1531  H     0.30579   0.72866   0.42027   0.00000  Uiso   1.00
H1532  H     0.41178   0.74114   0.46702   0.00000  Uiso   1.00
H1533  H     0.54858   0.77453   0.30612   0.00000  Uiso   1.00
H1534  H     0.55128   0.94320   0.43970   0.00000  Uiso   1.00
H1535  H     0.40510   0.72369   0.43622   0.00000  Uiso   1.00
H1536  H     0.40556   0.74087   0.22325   0.00000  Uiso   1.00
H1537  H     0.35577   0.74543   0.58331   0.00000  Uiso   1.00
C1538  C     0.35845   0.80570   0.58603   0.00000  Uiso   1.00
C1539  C     0.38685   0.83197   0.54565   0.00000  Uiso   1.00
C1540  C     0.48543   0.85609   0.53266   0.00000  Uiso   1.00
C1541  C     0.34120   0.76527   0.64718   0.00000  Uiso   1.00
C1542  C     0.30572   0.79497   0.67147   0.00000  Uiso   1.00
C1543  C     0.35397   0.74349   0.60629   0.00000  Uiso   1.00
C1544  C     0.33335   0.79459   0.65707   0.00000  Uiso   1.00
H1545  H     0.44725   0.72797   0.70448   0.00000  Uiso   1.00
C1546  C     0.35540   0.80722   0.67744   0.00000  Uiso   1.00
C1547  C     0.33221   0.95047   0.68929   0.00000  Uiso   1.00
C1548  C     0.51360   0.77695   0.66518   0.00000  Uiso   1.00
H1549  H     0.50267   0.77553   0.68523   0.00000  Uiso   1.00
C1550  C     0.52313   0.91310   0.58837   0.00000  Uiso   1.00
H1551  H     0.33274   0.91564   0.53554   0.00000  Uiso   1.00
C1552  C     0.51377   0.88143   0.49257   0.00000  Uiso   1.00
H1553  H     0.34674   0.83912   0.52594   0.00000  Uiso   1.00
H1554  H     0.39582   0.92386   0.59587   0.00000  Uiso   1.00
C1555  C     0.38554   0.81265   0.59157   0.00000  Uiso   1.00
H1556  H     0.29972   0.81646   0.67976   0.00000  Uiso   1.00
H1557  H     0.30871   0.78281   0.68929   0.00000  Uiso   1.00
C1558  C     0.54458   0.73458   0.70256   0.00000  Uiso   1.00
H1559  H     0.23891   0.88450   0.59418   0.00000  Uiso   1.00
C1560  C     0.35925   0.82874   0.54367   0.00000  Uiso   1.00
C1561  C     0.34352   0.81725   0.56341   0.00000  Uiso   1.00
C1562  C     0.41145   0.92832   0.57972   0.00000  Uiso   1.00
C1563  C     0.33306   0.81143   0.63145   0.00000  Uiso   1.00
C1564  C     0.44155   0.84176   0.55095   0.00000  Uiso   1.00
H1565  H     0.53880   0.77579   0.48144   0.00000  Uiso   1.00
C1566  C     0.29910   0.83899   0.57377   0.00000  Uiso   1.00
N1567  N     0.55459   0.73225   0.53634   0.00000  Uiso   1.00
H1568  H     0.47128   0.73526   0.66561   0.00000  Uiso   1.00
C1569  C     0.52559   0.80132   0.65642   0.00000  Uiso   1.00
C1570  C     0.47133   0.86808   0.51010   0.00000  Uiso   1.00
C1571  C     0.31107   0.78888   0.58793   0.00000  Uiso   1.00
C1572  C     0.51997   0.75225   0.65147   0.00000  Uiso   1.00
C1573  C     0.53535   0.91072   0.61419   0.00000  Uiso   1.00
H1574  H     0.28828   0.84803   0.55599   0.00000  Uiso   1.00
H1575  H     0.45898   0.94638   0.52076   0.00000  Uiso   1.00
H1576  H     0.31441   0.85414   0.58056   0.00000  Uiso   1.00
O1577  O     0.52585   0.82364   0.67411   0.00000  Uiso   1.00
O1578  O     0.37922   0.95667   0.70616   0.00000  Uiso   1.00
H1579  H     0.36472   0.90274   0.52469   0.00000  Uiso   1.00
H1580  H     0.46326   0.94083   0.47587   0.00000  Uiso   1.00
C1581  C     0.54029   0.72259   0.61786   0.00000  Uiso   1.00
C1582  C     0.22356   0.89412   0.60695   0.00000  Uiso   1.00
H1583  H     0.32422   0.72807   0.49657   0.00000  Uiso   1.00
C1584  C     0.44327   0.86200   0.50625   0.00000  Uiso   1.00
H1585  H     0.34829   0.82676   0.68429   0.00000  Uiso   1.00
C1586  C     0.34719   0.74046   0.66186   0.00000  Uiso   1.00
H1587  H     0.31235   0.78075   0.53019   0.00000  Uiso   1.00
O1588  O     0.53100   0.91444   0.66501   0.00000  Uiso   1.00
C1589  C     0.44460   0.94081   0.53667   0.00000  Uiso   1.00
H1590  H     0.34867   0.94057   0.58884   0.00000  Uiso   1.00
C1591  C     0.33852   0.79322   0.60652   0.00000  Uiso   1.00
H1592  H     0.29167   0.94748   0.67303   0.00000  Uiso   1.00
C1593  C     0.51919   0.91061   0.63762   0.00000  Uiso   1.00
C1594  C     0.53931   0.91772   0.56486   0.00000  Uiso   1.00
C1595  C     0.42834   0.84912   0.52707   0.00000  Uiso   1.00
C1596  C     0.45619   0.92917   0.56027   0.00000  Uiso   1.00
C1597  C     0.54340   0.80141   0.63205   0.00000  Uiso   1.00
O1598  O     0.44920   0.91562   0.60893   0.00000  Uiso   1.00
O1599  O     0.48459   0.92457   0.56036   0.00000  Uiso   1.00
O1600  O     0.51425   0.85856   0.53790   0.00000  Uiso   1.00
H1601  H     0.28838   0.78904   0.65801   0.00000  Uiso   1.00
C1602  C     0.49057   0.91060   0.63556   0.00000  Uiso   1.00
C1603  C     0.35523   0.91260   0.54170   0.00000  Uiso   1.00
C1604  C     0.51416   0.72288   0.66172   0.00000  Uiso   1.00
C1605  C     0.35363   0.91371   0.71181   0.00000  Uiso   1.00
O1606  O     0.40046   0.84391   0.52273   0.00000  Uiso   1.00
C1607  C     0.48302   0.83808   0.57932   0.00000  Uiso   1.00
H1608  H     0.27919   0.79420   0.54087   0.00000  Uiso   1.00
C1609  C     0.39828   0.95580   0.50992   0.00000  Uiso   1.00
C1610  C     0.47498   0.90681   0.65966   0.00000  Uiso   1.00
C1611  C     0.40104   0.93578   0.48615   0.00000  Uiso   1.00
C1612  C     0.43930   0.92565   0.58390   0.00000  Uiso   1.00
C1613  C     0.49556   0.91743   0.58572   0.00000  Uiso   1.00
C1614  C     0.30104   0.79951   0.53738   0.00000  Uiso   1.00
N1615  N     0.49324   0.83248   0.60015   0.00000  Uiso   1.00
C1616  C     0.34885   0.95258   0.56990   0.00000  Uiso   1.00
C1617  C     0.39983   0.93592   0.55584   0.00000  Uiso   1.00
H1618  H     0.31534   0.82409   0.62806   0.00000  Uiso   1.00
H1619  H     0.31232   0.76951   0.57820   0.00000  Uiso   1.00
C1620  C     0.47013   0.84463   0.55371   0.00000  Uiso   1.00
C1621  C     0.47745   0.91532   0.61069   0.00000  Uiso   1.00
O1622  O     0.33016   0.92376   0.69867   0.00000  Uiso   1.00
H1623  H     0.30168   0.81450   0.52067   0.00000  Uiso   1.00
O1624  O     0.22983   0.75086   0.53299   0.00000  Uiso   1.00
N1625  N     0.46274   0.90474   0.68022   0.00000  Uiso   1.00
C1626  C     0.34440   0.76592   0.61897   0.00000  Uiso   1.00
H1627  H     0.38073   0.93369   0.47618   0.00000  Uiso   1.00
H1628  H     0.28187   0.83521   0.58867   0.00000  Uiso   1.00
C1629  C     0.54520   0.77740   0.61640   0.00000  Uiso   1.00
C1630  C     0.36896   0.95900   0.52168   0.00000  Uiso   1.00
O1631  O     0.42878   0.82982   0.57449   0.00000  Uiso   1.00
H1632  H     0.35280   0.82411   0.62998   0.00000  Uiso   1.00
C1633  C     0.31195   0.81129   0.56564   0.00000  Uiso   1.00
H1634  H     0.39621   0.80227   0.60951   0.00000  Uiso   1.00
C1635  C     0.40130   0.82384   0.57064   0.00000  Uiso   1.00
H1636  H     0.35169   0.95644   0.50801   0.00000  Uiso   1.00
H1637  H     0.35306   0.90020   0.56049   0.00000  Uiso   1.00
H1638  H     0.35940   0.79206   0.69462   0.00000  Uiso   1.00
H1639  H     0.29139   0.78942   0.60102   0.00000  Uiso   1.00
H1640  H     0.37600   0.80792   0.66836   0.00000  Uiso   1.00
C1641  C     0.41683   0.94516   0.53402   0.00000  Uiso   1.00
C1642  C     0.53467   0.75239   0.62733   0.00000  Uiso   1.00
C1643  C     0.36903   0.93991   0.54778   0.00000  Uiso   1.00
N1644  N     0.23498   0.95501   0.58274   0.00000  Uiso   1.00
N1645  N     0.55294   0.92219   0.54542   0.00000  Uiso   1.00
H1646  H     0.26970   0.75899   0.49591   0.00000  Uiso   1.00
H1647  H     0.23763   0.88424   0.70976   0.00000  Uiso   1.00
N1648  N     0.24119   0.80271   0.58005   0.00000  Uiso   1.00
C1649  C     0.35583   0.96649   0.69443   0.00000  Uiso   1.00
C1650  C     0.55032   0.83779   0.67497   0.00000  Uiso   1.00
C1651  C     0.24015   0.73013   0.51458   0.00000  Uiso   1.00
C1652  C     0.26127   0.73695   0.49663   0.00000  Uiso   1.00
O1653  O     0.48564   0.88264   0.49041   0.00000  Uiso   1.00
C1654  C     0.52783   0.86996   0.51505   0.00000  Uiso   1.00
H1655  H     0.34887   0.73982   0.68366   0.00000  Uiso   1.00
N1656  N     0.24269   0.81495   0.47353   0.00000  Uiso   1.00
N1657  N     0.31176   0.85574   0.71135   0.00000  Uiso   1.00
H1658  H     0.52396   0.73384   0.57869   0.00000  Uiso   1.00
C1659  C     0.43021   0.86662   0.48023   0.00000  Uiso   1.00
C1660  C     0.22825   0.78208   0.57933   0.00000  Uiso   1.00
H1661  H     0.32817   0.95680   0.55966   0.00000  Uiso   1.00
H1662  H     0.40846   0.91595   0.49184   0.00000  Uiso   1.00
H1663  H     0.23252   0.89906   0.62732   0.00000  Uiso   1.00
C1664  C     0.30928   0.96189   0.67702   0.00000  Uiso   1.00
H1665  H     0.47526   0.73786   0.48005   0.00000  Uiso   1.00
C1666  C     0.37745   0.93057   0.71670   0.00000  Uiso   1.00
C1667  C     0.33025   0.87026   0.71524   0.00000  Uiso   1.00
C1668  C     0.52198   0.72261   0.69093   0.00000  Uiso   1.00
H1669  H     0.38470   0.73789   0.72160   0.00000  Uiso   1.00
C1670  C     0.35297   0.88648   0.72036   0.00000  Uiso   1.00
C1671  C     0.32022   0.73421   0.47416   0.00000  Uiso   1.00
C1672  C     0.22257   0.97076   0.59528   0.00000  Uiso   1.00
H1673  H     0.31306   0.75583   0.47221   0.00000  Uiso   1.00
C1674  C     0.39868   0.89343   0.81961   0.00000  Uiso   1.00
C1675  C     0.42073   0.85159   0.75553   0.00000  Uiso   1.00
O1676  O     0.32447   0.90181   0.82987   0.00000  Uiso   1.00
C1677  C     0.35581   0.86784   0.84906   0.00000  Uiso   1.00
H1678  H     0.35067   0.73221   0.74199   0.00000  Uiso   1.00
C1679  C     0.23640   0.89696   0.91989   0.00000  Uiso   1.00
H1680  H     0.23432   0.87672   0.74391   0.00000  Uiso   1.00
H1681  H     0.40636   0.77953   0.84713   0.00000  Uiso   1.00
C1682  C     0.37796   0.74496   0.79260   0.00000  Uiso   1.00
C1683  C     0.39363   0.81001   0.76654   0.00000  Uiso   1.00
C1684  C     0.52139   0.91264   0.75979   0.00000  Uiso   1.00
C1685  C     0.26163   0.74955   0.84893   0.00000  Uiso   1.00
H1686  H     0.49958   0.79019   0.81208   0.00000  Uiso   1.00
H1687  H     0.49842   0.81689   0.78727   0.00000  Uiso   1.00
C1688  C     0.33220   0.95464   0.91704   0.00000  Uiso   1.00
C1689  C     0.46815   0.83836   0.93793   0.00000  Uiso   1.00
C1690  C     0.46735   0.91225   0.79819   0.00000  Uiso   1.00
C1691  C     0.42856   0.97087   0.90618   0.00000  Uiso   1.00
O1692  O     0.37161   0.84849   0.74673   0.00000  Uiso   1.00
H1693  H     0.55336   0.91625   0.81911   0.00000  Uiso   1.00
C1694  C     0.53041   0.76779   0.95118   0.00000  Uiso   1.00
C1695  C     0.44863   0.77053   0.80369   0.00000  Uiso   1.00
H1696  H     0.49009   0.77225   0.93585   0.00000  Uiso   1.00
O1697  O     0.43033   0.86433   0.84625   0.00000  Uiso   1.00
H1698  H     0.27067   0.85790   0.93997   0.00000  Uiso   1.00
C1699  C     0.23879   0.78782   0.92253   0.00000  Uiso   1.00
C1700  C     0.40356   0.87168   0.83929   0.00000  Uiso   1.00
H1701  H     0.36692   0.76368   0.74052   0.00000  Uiso   1.00
C1702  C     0.34945   0.89080   0.83094   0.00000  Uiso   1.00
C1703  C     0.39040   0.76871   0.83419   0.00000  Uiso   1.00
C1704  C     0.43069   0.74517   0.89950   0.00000  Uiso   1.00
H1705  H     0.46169   0.72576   0.93594   0.00000  Uiso   1.00
H1706  H     0.29887   0.85627   0.90697   0.00000  Uiso   1.00
H1707  H     0.35793   0.89309   0.94121   0.00000  Uiso   1.00
H1708  H     0.43898   0.82748   0.90837   0.00000  Uiso   1.00
C1709  C     0.49413   0.90501   0.80601   0.00000  Uiso   1.00
C1710  C     0.41725   0.79767   0.77588   0.00000  Uiso   1.00
H1711  H     0.42410   0.75467   0.74609   0.00000  Uiso   1.00
C1712  C     0.37215   0.90239   0.81798   0.00000  Uiso   1.00
H1713  H     0.52821   0.96548   0.88098   0.00000  Uiso   1.00
C1714  C     0.28513   0.89741   0.90485   0.00000  Uiso   1.00
H1715  H     0.48242   0.85466   0.85423   0.00000  Uiso   1.00
C1716  C     0.44522   0.83715   0.76437   0.00000  Uiso   1.00
C1717  C     0.28166   0.76319   0.86628   0.00000  Uiso   1.00
C1718  C     0.52419   0.94713   0.79911   0.00000  Uiso   1.00
C1719  C     0.34418   0.75013   0.82834   0.00000  Uiso   1.00
H1720  H     0.38944   0.91030   0.94686   0.00000  Uiso   1.00
C1721  C     0.25142   0.80575   0.96654   0.00000  Uiso   1.00
H1722  H     0.52107   0.88976   0.75514   0.00000  Uiso   1.00
C1723  C     0.26664   0.89943   0.92973   0.00000  Uiso   1.00
C1724  C     0.46014   0.86883   0.93973   0.00000  Uiso   1.00
C1725  C     0.52022   0.91591   0.79235   0.00000  Uiso   1.00
H1726  H     0.25958   0.93603   0.95524   0.00000  Uiso   1.00
C1727  C     0.42555   0.82156   0.96615   0.00000  Uiso   1.00
N1728  N     0.26754   0.72594   0.91429   0.00000  Uiso   1.00
H1729  H     0.22944   0.91528   0.90852   0.00000  Uiso   1.00
H1730  H     0.47850   0.81823   0.82060   0.00000  Uiso   1.00
C1731  C     0.42026   0.76860   0.78912   0.00000  Uiso   1.00
O1732  O     0.38004   0.96115   0.91211   0.00000  Uiso   1.00
C1733  C     0.32943   0.77269   0.87803   0.00000  Uiso   1.00
C1734  C     0.47861   0.87166   0.83952   0.00000  Uiso   1.00
C1735  C     0.47856   0.77660   0.75943   0.00000  Uiso   1.00
N1736  N     0.43355   0.91913   0.89895   0.00000  Uiso   1.00
C1737  C     0.39703   0.89196   0.73984   0.00000  Uiso   1.00
C1738  C     0.29765   0.87387   0.89404   0.00000  Uiso   1.00
C1739  C     0.23131   0.89334   0.72894   0.00000  Uiso   1.00
H1740  H     0.44820   0.77887   0.82385   0.00000  Uiso   1.00
C1741  C     0.30958   0.75791   0.86216   0.00000  Uiso   1.00
C1742  C     0.25829   0.80014   0.93974   0.00000  Uiso   1.00
H1743  H     0.37263   0.80155   0.76916   0.00000  Uiso   1.00
H1744  H     0.33657   0.72618   0.79280   0.00000  Uiso   1.00
O1745  O     0.33221   0.85614   0.86263   0.00000  Uiso   1.00
H1746  H     0.43563   0.73148   0.77098   0.00000  Uiso   1.00
H1747  H     0.49227   0.76010   0.76562   0.00000  Uiso   1.00
C1748  C     0.51870   0.74143   0.96445   0.00000  Uiso   1.00
C1749  C     0.50041   0.88616   0.82656   0.00000  Uiso   1.00
C1750  C     0.37361   0.87596   0.73635   0.00000  Uiso   1.00
C1751  C     0.44205   0.81077   0.77494   0.00000  Uiso   1.00
H1752  H     0.53652   0.74659   0.91205   0.00000  Uiso   1.00
H1753  H     0.29609   0.87926   0.95621   0.00000  Uiso   1.00
C1754  C     0.45378   0.82164   0.96029   0.00000  Uiso   1.00
C1755  C     0.48566   0.80488   0.80305   0.00000  Uiso   1.00
H1756  H     0.46515   0.77004   0.74169   0.00000  Uiso   1.00
N1757  N     0.52797   0.84054   0.74223   0.00000  Uiso   1.00
N1758  N     0.44275   0.94895   0.73757   0.00000  Uiso   1.00
H1759  H     0.47066   0.80812   0.90423   0.00000  Uiso   1.00
H1760  H     0.37364   0.72529   0.90696   0.00000  Uiso   1.00
H1761  H     0.50375   0.92395   0.74953   0.00000  Uiso   1.00
H1762  H     0.46506   0.84835   0.76625   0.00000  Uiso   1.00
C1763  C     0.39528   0.83705   0.75791   0.00000  Uiso   1.00
H1764  H     0.41122   0.83498   0.95302   0.00000  Uiso   1.00
N1765  N     0.35396   0.81341   0.92809   0.00000  Uiso   1.00
H1766  H     0.45980   0.75037   0.80327   0.00000  Uiso   1.00
H1767  H     0.46219   0.92824   0.78325   0.00000  Uiso   1.00
C1768  C     0.46385   0.79096   0.78464   0.00000  Uiso   1.00
C1769  C     0.45186   0.87871   0.83283   0.00000  Uiso   1.00
C1770  C     0.31368   0.87596   0.87073   0.00000  Uiso   1.00
O1771  O     0.42178   0.87964   0.74994   0.00000  Uiso   1.00
C1772  C     0.50650   0.78590   0.94151   0.00000  Uiso   1.00
H1773  H     0.42424   0.75434   0.91804   0.00000  Uiso   1.00
H1774  H     0.43810   0.87227   0.93199   0.00000  Uiso   1.00
H1775  H     0.51323   0.84065   0.93176   0.00000  Uiso   1.00
C1776  C     0.27242   0.77707   0.89040   0.00000  Uiso   1.00
H1777  H     0.54005   0.91952   0.74988   0.00000  Uiso   1.00
H1778  H     0.23933   0.96545   0.90520   0.00000  Uiso   1.00
H1779  H     0.48989   0.79349   0.74866   0.00000  Uiso   1.00
C1780  C     0.33947   0.80184   0.91500   0.00000  Uiso   1.00
C1781  C     0.44577   0.89987   0.81332   0.00000  Uiso   1.00
O1782  O     0.35721   0.77349   0.86934   0.00000  Uiso   1.00
C1783  C     0.38765   0.83606   0.86911   0.00000  Uiso   1.00
C1784  C     0.38125   0.85803   0.85219   0.00000  Uiso   1.00
C1785  C     0.32004   0.78790   0.90063   0.00000  Uiso   1.00
H1786  H     0.51030   0.79524   0.92169   0.00000  Uiso   1.00
N1787  N     0.39260   0.81593   0.88178   0.00000  Uiso   1.00
C1788  C     0.26113   0.96907   0.90399   0.00000  Uiso   1.00
C1789  C     0.39645   0.76190   0.80724   0.00000  Uiso   1.00
H1790  H     0.53567   0.72505   0.96516   0.00000  Uiso   1.00
H1791  H     0.53764   0.80818   0.86603   0.00000  Uiso   1.00
C1792  C     0.29216   0.78979   0.90709   0.00000  Uiso   1.00
C1793  C     0.54167   0.84525   0.72259   0.00000  Uiso   1.00
C1794  C     0.27436   0.87761   0.94965   0.00000  Uiso   1.00
C1795  C     0.41870   0.74533   0.76618   0.00000  Uiso   1.00
H1796  H     0.51786   0.83772   0.83561   0.00000  Uiso   1.00
H1797  H     0.50260   0.73047   0.95317   0.00000  Uiso   1.00
H1798  H     0.47033   0.84497   0.89458   0.00000  Uiso   1.00
C1799  C     0.27416   0.92901   0.93957   0.00000  Uiso   1.00
C1800  C     0.46268   0.82960   0.90940   0.00000  Uiso   1.00
H1801  H     0.45091   0.75440   0.89520   0.00000  Uiso   1.00
C1802  C     0.36398   0.76475   0.84379   0.00000  Uiso   1.00
O1803  O     0.28505   0.80429   0.93090   0.00000  Uiso   1.00
N1804  N     0.36136   0.94270   0.78663   0.00000  Uiso   1.00
C1805  C     0.49777   0.83732   0.94699   0.00000  Uiso   1.00
C1806  C     0.42277   0.93548   0.73460   0.00000  Uiso   1.00
C1807  C     0.54348   0.90495   0.87798   0.00000  Uiso   1.00
C1808  C     0.28718   0.92296   0.89155   0.00000  Uiso   1.00
C1809  C     0.35195   0.73857   0.80389   0.00000  Uiso   1.00
O1810  O     0.41996   0.90742   0.80626   0.00000  Uiso   1.00
H1811  H     0.38459   0.87214   0.95391   0.00000  Uiso   1.00
C1812  C     0.37084   0.74158   0.74171   0.00000  Uiso   1.00
H1813  H     0.29450   0.92852   0.95014   0.00000  Uiso   1.00
C1814  C     0.27998   0.94685   0.91359   0.00000  Uiso   1.00
H1815  H     0.53133   0.92457   0.87262   0.00000  Uiso   1.00
H1816  H     0.33650   0.93289   0.91790   0.00000  Uiso   1.00
C1817  C     0.29883   0.92440   0.86575   0.00000  Uiso   1.00
C1818  C     0.36686   0.92434   0.80093   0.00000  Uiso   1.00
C1819  C     0.31227   0.90117   0.85477   0.00000  Uiso   1.00
H1820  H     0.50681   0.96118   0.79328   0.00000  Uiso   1.00
H1821  H     0.50121   0.85262   0.96303   0.00000  Uiso   1.00
H1822  H     0.41600   0.74978   0.88222   0.00000  Uiso   1.00
C1823  C     0.54926   0.73240   0.73116   0.00000  Uiso   1.00
O1824  O     0.24465   0.78046   0.89665   0.00000  Uiso   1.00
H1825  H     0.29855   0.94509   0.85316   0.00000  Uiso   1.00
C1826  C     0.53108   0.88000   0.83043   0.00000  Uiso   1.00
C1827  C     0.43159   0.94256   0.90127   0.00000  Uiso   1.00
O1828  O     0.31830   0.74421   0.83824   0.00000  Uiso   1.00
H1829  H     0.23368   0.87798   0.90790   0.00000  Uiso   1.00
C1830  C     0.37517   0.89412   0.95549   0.00000  Uiso   1.00
C1831  C     0.30555   0.96434   0.91906   0.00000  Uiso   1.00
H1832  H     0.52437   0.94912   0.82150   0.00000  Uiso   1.00
H1833  H     0.22832   0.77234   0.72533   0.00000  Uiso   1.00
C1834  C     0.54337   0.89998   0.80821   0.00000  Uiso   1.00
C1835  C     0.53571   0.84821   0.82609   0.00000  Uiso   1.00
H1836  H     0.47171   0.88159   0.92545   0.00000  Uiso   1.00
C1837  C     0.50195   0.81031   0.96171   0.00000  Uiso   1.00
H1838  H     0.53737   0.84436   0.80443   0.00000  Uiso   1.00
C1839  C     0.39901   0.91880   0.72966   0.00000  Uiso   1.00
H1840  H     0.22524   0.73820   0.72812   0.00000  Uiso   1.00
H1841  H     0.36844   0.94386   0.97022   0.00000  Uiso   1.00
N1842  N     0.24572   0.73873   0.83429   0.00000  Uiso   1.00
C1843  C     0.54587   0.88354   0.85881   0.00000  Uiso   1.00
C1844  C     0.38945   0.73281   0.76611   0.00000  Uiso   1.00
H1845  H     0.46056   0.87637   0.96189   0.00000  Uiso   1.00
H1846  H     0.54204   0.95593   0.78751   0.00000  Uiso   1.00
N1847  N     0.53317   0.97154   0.72611   0.00000  Uiso   1.00
H1848  H     0.24643   0.90949   0.73424   0.00000  Uiso   1.00
C1849  C     0.54902   0.75888   0.92641   0.00000  Uiso   1.00
H1850  H     0.22485   0.89669   0.93903   0.00000  Uiso   1.00
H1851  H     0.26263   0.87708   0.96953   0.00000  Uiso   1.00
C1852  C     0.35446   0.97198   0.91361   0.00000  Uiso   1.00
C1853  C     0.54341   0.78631   0.97204   0.00000  Uiso   1.00
H1854  H     0.35942   0.86624   1.16644   0.00000  Uiso   1.00
H1855  H     0.27110   0.85063   1.07007   0.00000  Uiso   1.00
C1856  C     0.44699   0.89206   1.17679   0.00000  Uiso   1.00
C1857  C     0.35094   0.88098   1.02750   0.00000  Uiso   1.00
H1858  H     0.54861   0.78756   1.14694   0.00000  Uiso   1.00
C1859  C     0.35851   0.75348   1.10734   0.00000  Uiso   1.00
O1860  O     0.42511   0.76527   1.01759   0.00000  Uiso   1.00
C1861  C     0.43544   0.90471   1.02412   0.00000  Uiso   1.00
H1862  H     0.51191   0.74417   0.98573   0.00000  Uiso   1.00
H1863  H     0.54808   0.84531   1.14184   0.00000  Uiso   1.00
O1864  O     0.53941   0.95359   1.06845   0.00000  Uiso   1.00
C1865  C     0.33632   0.90515   1.04357   0.00000  Uiso   1.00
H1866  H     0.37681   0.77986   1.16333   0.00000  Uiso   1.00
C1867  C     0.40372   0.83233   1.15199   0.00000  Uiso   1.00
H1868  H     0.28818   0.88927   1.00891   0.00000  Uiso   1.00
C1869  C     0.38977   0.90070   1.00544   0.00000  Uiso   1.00
H1870  H     0.53380   0.74734   1.21117   0.00000  Uiso   1.00
C1871  C     0.28540   0.74818   1.12801   0.00000  Uiso   1.00
C1872  C     0.42831   0.88870   1.04743   0.00000  Uiso   1.00
C1873  C     0.38305   0.88546   1.02812   0.00000  Uiso   1.00
C1874  C     0.50102   0.93429   1.04466   0.00000  Uiso   1.00
C1875  C     0.29986   0.81870   1.06600   0.00000  Uiso   1.00
C1876  C     0.51785   0.93525   1.06827   0.00000  Uiso   1.00
O1877  O     0.46083   0.91746   1.02033   0.00000  Uiso   1.00
O1878  O     0.48049   0.73080   1.02963   0.00000  Uiso   1.00
H1879  H     0.52668   0.76165   1.17703   0.00000  Uiso   1.00
H1880  H     0.37585   0.89762   1.16825   0.00000  Uiso   1.00
C1881  C     0.30630   0.89605   1.05094   0.00000  Uiso   1.00
C1882  C     0.44822   0.74746   1.17384   0.00000  Uiso   1.00
C1883  C     0.52013   0.96047   1.20854   0.00000  Uiso   1.00
C1884  C     0.46661   0.74741   1.15103   0.00000  Uiso   1.00
H1885  H     0.41257   0.82932   1.13113   0.00000  Uiso   1.00
H1886  H     0.43549   0.91061   1.17152   0.00000  Uiso   1.00
C1887  C     0.29173   0.84638   1.06231   0.00000  Uiso   1.00
C1888  C     0.34324   0.82892   1.04542   0.00000  Uiso   1.00
C1889  C     0.37757   0.77899   1.00529   0.00000  Uiso   1.00
C1890  C     0.40242   0.87705   1.12902   0.00000  Uiso   1.00
H1891  H     0.26424   0.81622   0.98200   0.00000  Uiso   1.00
C1892  C     0.42245   0.82087   1.17560   0.00000  Uiso   1.00
C1893  C     0.40110   0.87937   1.04925   0.00000  Uiso   1.00
C1894  C     0.44083   0.84469   1.18434   0.00000  Uiso   1.00
C1895  C     0.47346   0.77302   1.13708   0.00000  Uiso   1.00
N1896  N     0.31461   0.80830   0.98555   0.00000  Uiso   1.00
C1897  C     0.35771   0.93224   0.98514   0.00000  Uiso   1.00
H1898  H     0.52345   0.84295   1.00850   0.00000  Uiso   1.00
H1899  H     0.46802   0.81698   1.13811   0.00000  Uiso   1.00
H1900  H     0.47577   0.77309   1.00558   0.00000  Uiso   1.00
C1901  C     0.37999   0.87525   1.17165   0.00000  Uiso   1.00
C1902  C     0.31448   0.74331   1.12929   0.00000  Uiso   1.00
C1903  C     0.53669   0.82724   0.99883   0.00000  Uiso   1.00
O1904  O     0.28080   0.80051   1.07583   0.00000  Uiso   1.00
C1905  C     0.34016   0.74777   1.01503   0.00000  Uiso   1.00
C1906  C     0.29649   0.91078   1.07687   0.00000  Uiso   1.00
O1907  O     0.31171   0.74097   1.00979   0.00000  Uiso   1.00
C1908  C     0.29149   0.77974   1.09125   0.00000  Uiso   1.00
C1909  C     0.46249   0.79726   1.14753   0.00000  Uiso   1.00
O1910  O     0.33745   0.78566   1.06840   0.00000  Uiso   1.00
C1911  C     0.31018   0.86524   1.05201   0.00000  Uiso   1.00
C1912  C     0.24591   0.76842   1.10793   0.00000  Uiso   1.00
H1913  H     0.38550   0.86946   1.11693   0.00000  Uiso   1.00
H1914  H     0.36449   0.82169   1.04329   0.00000  Uiso   1.00
C1915  C     0.28557   0.90193   1.02820   0.00000  Uiso   1.00
C1916  C     0.47166   0.89143   1.19313   0.00000  Uiso   1.00
C1917  C     0.40713   0.77661   1.19678   0.00000  Uiso   1.00
C1918  C     0.32714   0.81026   1.05941   0.00000  Uiso   1.00
C1919  C     0.40495   0.86261   1.15700   0.00000  Uiso   1.00
C1920  C     0.48463   0.72738   1.05676   0.00000  Uiso   1.00
C1921  C     0.31970   0.77182   1.08854   0.00000  Uiso   1.00
C1922  C     0.33031   0.75532   1.10835   0.00000  Uiso   1.00
H1923  H     0.30879   0.90499   1.09478   0.00000  Uiso   1.00
H1924  H     0.46034   0.72982   0.98136   0.00000  Uiso   1.00
C1925  C     0.22524   0.80237   0.97668   0.00000  Uiso   1.00
H1926  H     0.32538   0.88637   0.99023   0.00000  Uiso   1.00
C1927  C     0.40811   0.80843   1.20069   0.00000  Uiso   1.00
C1928  C     0.50409   0.95128   1.02184   0.00000  Uiso   1.00
C1929  C     0.27383   0.76502   1.10824   0.00000  Uiso   1.00
O1930  O     0.32723   0.72890   1.15171   0.00000  Uiso   1.00
O1931  O     0.38716   0.80100   0.98835   0.00000  Uiso   1.00
H1932  H     0.42282   0.92156   0.98425   0.00000  Uiso   1.00
C1933  C     0.44017   0.79678   1.16623   0.00000  Uiso   1.00
C1934  C     0.34986   0.77181   1.00334   0.00000  Uiso   1.00
C1935  C     0.43088   0.86892   1.17367   0.00000  Uiso   1.00
C1936  C     0.41583   0.80280   0.98526   0.00000  Uiso   1.00
C1937  C     0.48617   0.75133   1.07309   0.00000  Uiso   1.00
H1938  H     0.38183   0.82380   1.14972   0.00000  Uiso   1.00
C1939  C     0.49081   0.89974   1.08858   0.00000  Uiso   1.00
O1940  O     0.48101   0.72307   1.14342   0.00000  Uiso   1.00
C1941  C     0.46222   0.78676   0.99292   0.00000  Uiso   1.00
C1942  C     0.48706   0.74986   1.10035   0.00000  Uiso   1.00
C1943  C     0.39594   0.76232   1.01991   0.00000  Uiso   1.00
H1944  H     0.34038   0.92532   1.03296   0.00000  Uiso   1.00
H1945  H     0.25774   0.78754   1.01889   0.00000  Uiso   1.00
C1946  C     0.38498   0.73907   1.03315   0.00000  Uiso   1.00
H1947  H     0.22396   0.90571   1.03179   0.00000  Uiso   1.00
O1948  O     0.44703   0.88628   1.06889   0.00000  Uiso   1.00
C1949  C     0.46329   0.84328   1.20265   0.00000  Uiso   1.00
O1950  O     0.26833   0.73439   1.14668   0.00000  Uiso   1.00
C1951  C     0.43217   0.77214   1.17917   0.00000  Uiso   1.00
O1952  O     0.48783   0.91501   1.19599   0.00000  Uiso   1.00
H1953  H     0.24827   0.83892   1.02239   0.00000  Uiso   1.00
O1954  O     0.48979   0.77452   1.11425   0.00000  Uiso   1.00
H1955  H     0.35993   0.94570   1.00329   0.00000  Uiso   1.00
H1956  H     0.28645   0.92351   1.02307   0.00000  Uiso   1.00
N1957  N     0.38246   0.75109   1.10614   0.00000  Uiso   1.00
C1958  C     0.34599   0.88201   0.99661   0.00000  Uiso   1.00
H1959  H     0.25895   0.72751   1.01685   0.00000  Uiso   1.00
O1960  O     0.53214   0.91578   1.11179   0.00000  Uiso   1.00
C1961  C     0.47771   0.91752   1.04440   0.00000  Uiso   1.00
C1962  C     0.51279   0.91829   1.09091   0.00000  Uiso   1.00
C1963  C     0.43443   0.78465   0.99894   0.00000  Uiso   1.00
N1964  N     0.22286   0.84338   1.18409   0.00000  Uiso   1.00
C1965  C     0.47178   0.90217   1.06728   0.00000  Uiso   1.00
C1966  C     0.41665   0.90909   1.00260   0.00000  Uiso   1.00
C1967  C     0.48770   0.87825   1.10886   0.00000  Uiso   1.00
H1968  H     0.34558   0.90924   1.06348   0.00000  Uiso   1.00
H1969  H     0.39451   0.86585   1.06646   0.00000  Uiso   1.00
H1970  H     0.29721   0.93433   1.07511   0.00000  Uiso   1.00
C1971  C     0.48746   0.77882   1.06210   0.00000  Uiso   1.00
C1972  C     0.33619   0.85606   1.04227   0.00000  Uiso   1.00
N1973  N     0.49077   0.80054   1.05263   0.00000  Uiso   1.00
C1974  C     0.47867   0.86690   1.20649   0.00000  Uiso   1.00
C1975  C     0.37965   0.76858   1.18251   0.00000  Uiso   1.00
N1976  N     0.48517   0.86006   1.12438   0.00000  Uiso   1.00
H1977  H     0.26473   0.89631   1.03734   0.00000  Uiso   1.00
H1978  H     0.40255   0.89986   1.13226   0.00000  Uiso   1.00
H1979  H     0.42048   0.87532   1.11616   0.00000  Uiso   1.00
H1980  H     0.27349   0.90601   1.07791   0.00000  Uiso   1.00
H1981  H     0.34836   0.86247   0.98588   0.00000  Uiso   1.00
C1982  C     0.36592   0.90178   0.98425   0.00000  Uiso   1.00
C1983  C     0.53239   0.74349   1.18944   0.00000  Uiso   1.00
H1984  H     0.44292   0.72670   1.18322   0.00000  Uiso   1.00
C1985  C     0.33060   0.79220   0.99309   0.00000  Uiso   1.00
C1986  C     0.23607   0.78270   1.01999   0.00000  Uiso   1.00
H1987  H     0.47045   0.82337   1.21248   0.00000  Uiso   1.00
H1988  H     0.38184   0.87363   1.19377   0.00000  Uiso   1.00
H1989  H     0.37927   0.74802   1.17574   0.00000  Uiso   1.00
C1990  C     0.52685   0.80789   0.97874   0.00000  Uiso   1.00
H1991  H     0.38672   0.81625   1.20417   0.00000  Uiso   1.00
C1992  C     0.35755   0.73139   1.03033   0.00000  Uiso   1.00
H1993  H     0.23731   0.93757   1.03093   0.00000  Uiso   1.00
C1994  C     0.50776   0.91302   1.21794   0.00000  Uiso   1.00
H1995  H     0.23584   0.76296   1.00838   0.00000  Uiso   1.00
H1996  H     0.36309   0.77179   1.19606   0.00000  Uiso   1.00
C1997  C     0.48450   0.72454   1.11430   0.00000  Uiso   1.00
N1998  N     0.50664   0.96421   1.00304   0.00000  Uiso   1.00
H1999  H     0.52002   0.72484   1.18510   0.00000  Uiso   1.00
H2000  H     0.41974   0.81317   1.21947   0.00000  Uiso   1.00
C2001  C     0.27951   0.72390   1.16971   0.00000  Uiso   1.00
C2002  C     0.47275   0.80523   0.97345   0.00000  Uiso   1.00
H2003  H     0.33462   0.93178   0.98103   0.00000  Uiso   1.00
H2004  H     0.22787   0.77873   1.04091   0.00000  Uiso   1.00
C2005  C     0.22590   0.83461   1.01754   0.00000  Uiso   1.00
H2006  H     0.29944   1.05327   0.31117   0.00000  Uiso   1.00
C2007  C     0.34651   1.19696   0.32369   0.00000  Uiso   1.00
C2008  C     0.30829   1.05367   0.33220   0.00000  Uiso   1.00
C2009  C     0.51351   1.17785   0.27392   0.00000  Uiso   1.00
H2010  H     0.25069   1.03874   0.38162   0.00000  Uiso   1.00
C2011  C     0.51862   1.06857   0.22735   0.00000  Uiso   1.00
H2012  H     0.23825   1.04397   0.33012   0.00000  Uiso   1.00
N2013  N     0.27844   1.19639   0.30553   0.00000  Uiso   1.00
C2014  C     0.44161   1.00047   0.46446   0.00000  Uiso   1.00
C2015  C     0.29163   1.06122   0.35400   0.00000  Uiso   1.00
C2016  C     0.36789   1.14141   0.40460   0.00000  Uiso   1.00
H2017  H     0.44995   0.98269   0.31649   0.00000  Uiso   1.00
H2018  H     0.26202   1.04118   0.43706   0.00000  Uiso   1.00
N2019  N     0.47962   1.13955   0.22613   0.00000  Uiso   1.00
O2020  O     0.45920   1.04827   0.46529   0.00000  Uiso   1.00
C2021  C     0.46740   1.05298   0.26923   0.00000  Uiso   1.00
H2022  H     0.49746   1.11493   0.39999   0.00000  Uiso   1.00
C2023  C     0.50665   1.20523   0.23313   0.00000  Uiso   1.00
C2024  C     0.45565   1.18666   0.40303   0.00000  Uiso   1.00
C2025  C     0.25712   1.08624   0.23153   0.00000  Uiso   1.00
H2026  H     0.29572   1.11851   0.36547   0.00000  Uiso   1.00
C2027  C     0.47347   1.00934   0.25131   0.00000  Uiso   1.00
C2028  C     0.27903   1.06440   0.40321   0.00000  Uiso   1.00
C2029  C     0.29314   1.16305   0.44602   0.00000  Uiso   1.00
H2030  H     0.34847   1.13232   0.39622   0.00000  Uiso   1.00
C2031  C     0.37143   1.20490   0.33715   0.00000  Uiso   1.00
H2032  H     0.23656   1.06985   0.39347   0.00000  Uiso   1.00
O2033  O     0.28429   1.17132   0.36938   0.00000  Uiso   1.00
H2034  H     0.38601   1.12725   0.39884   0.00000  Uiso   1.00
H2035  H     0.45165   1.00450   0.24654   0.00000  Uiso   1.00
H2036  H     0.28376   1.02311   0.41454   0.00000  Uiso   1.00
H2037  H     0.40810   1.15882   0.45311   0.00000  Uiso   1.00
C2038  C     0.23152   1.11097   0.34314   0.00000  Uiso   1.00
O2039  O     0.50977   1.15263   0.28833   0.00000  Uiso   1.00
C2040  C     0.52407   1.09642   0.24117   0.00000  Uiso   1.00
C2041  C     0.54568   1.15092   0.41646   0.00000  Uiso   1.00
H2042  H     0.54005   1.09568   0.25699   0.00000  Uiso   1.00
H2043  H     0.35634   1.10296   0.44471   0.00000  Uiso   1.00
C2044  C     0.24625   1.16912   0.44324   0.00000  Uiso   1.00
H2045  H     0.33783   1.05560   0.40766   0.00000  Uiso   1.00
C2046  C     0.44643   1.07095   0.31911   0.00000  Uiso   1.00
O2047  O     0.43929   1.07924   0.34532   0.00000  Uiso   1.00
C2048  C     0.31604   1.20509   0.40166   0.00000  Uiso   1.00
C2049  C     0.37806   0.98729   0.31950   0.00000  Uiso   1.00
H2050  H     0.50534   1.10894   0.32154   0.00000  Uiso   1.00
C2051  C     0.46424   1.03476   0.29121   0.00000  Uiso   1.00
C2052  C     0.28107   1.04190   0.42480   0.00000  Uiso   1.00
C2053  C     0.30164   1.06031   0.38239   0.00000  Uiso   1.00
C2054  C     0.44674   1.08850   0.29489   0.00000  Uiso   1.00
C2055  C     0.43922   1.10819   0.34694   0.00000  Uiso   1.00
N2056  N     0.42764   1.02503   0.40981   0.00000  Uiso   1.00
C2057  C     0.46041   1.19924   0.42821   0.00000  Uiso   1.00
O2058  O     0.26068   1.21392   0.24047   0.00000  Uiso   1.00
H2059  H     0.45377   1.18655   0.44701   0.00000  Uiso   1.00
H2060  H     0.51570   1.06599   0.34862   0.00000  Uiso   1.00
C2061  C     0.48154   1.03933   0.24435   0.00000  Uiso   1.00
C2062  C     0.44684   1.15318   0.32691   0.00000  Uiso   1.00
H2063  H     0.45651   0.99666   0.44653   0.00000  Uiso   1.00
N2064  N     0.42529   1.09266   0.41560   0.00000  Uiso   1.00
C2065  C     0.44240   1.12514   0.32402   0.00000  Uiso   1.00
C2066  C     0.52003   1.15111   0.31429   0.00000  Uiso   1.00
N2067  N     0.44721   1.18387   0.28385   0.00000  Uiso   1.00
H2068  H     0.25471   1.09296   0.25368   0.00000  Uiso   1.00
C2069  C     0.32095   1.19491   0.47150   0.00000  Uiso   1.00
C2070  C     0.38086   1.01995   0.35622   0.00000  Uiso   1.00
C2071  C     0.44716   1.16978   0.30299   0.00000  Uiso   1.00
C2072  C     0.40948   0.97972   0.35776   0.00000  Uiso   1.00
O2073  O     0.37299   1.04337   0.37003   0.00000  Uiso   1.00
C2074  C     0.40192   1.00523   0.36874   0.00000  Uiso   1.00
C2075  C     0.43000   1.10635   0.39647   0.00000  Uiso   1.00
O2076  O     0.34970   1.02859   0.31868   0.00000  Uiso   1.00
C2077  C     0.26635   1.15109   0.36227   0.00000  Uiso   1.00
H2078  H     0.27805   1.10746   0.40337   0.00000  Uiso   1.00
O2079  O     0.43881   1.11534   0.29734   0.00000  Uiso   1.00
H2080  H     0.26146   1.09112   0.43271   0.00000  Uiso   1.00
C2081  C     0.27166   1.19546   0.37937   0.00000  Uiso   1.00
C2082  C     0.43696   1.12067   0.37262   0.00000  Uiso   1.00
C2083  C     0.31594   1.14857   0.43797   0.00000  Uiso   1.00
H2084  H     0.37058   1.16094   0.39321   0.00000  Uiso   1.00
H2085  H     0.54197   1.17311   0.41222   0.00000  Uiso   1.00
H2086  H     0.48715   1.08737   0.37769   0.00000  Uiso   1.00
N2087  N     0.33922   1.20176   0.40578   0.00000  Uiso   1.00
H2088  H     0.48597   0.99387   0.24022   0.00000  Uiso   1.00
O2089  O     0.54297   1.19615   0.31116   0.00000  Uiso   1.00
C2090  C     0.26269   1.07267   0.35454   0.00000  Uiso   1.00
H2091  H     0.31356   1.13360   0.42159   0.00000  Uiso   1.00
C2092  C     0.36831   1.14586   0.43627   0.00000  Uiso   1.00
C2093  C     0.53662   1.17244   0.32458   0.00000  Uiso   1.00
C2094  C     0.28793   1.21088   0.39751   0.00000  Uiso   1.00
O2095  O     0.26881   1.15459   0.43342   0.00000  Uiso   1.00
C2096  C     0.38058   1.21732   0.46346   0.00000  Uiso   1.00
H2097  H     0.49453   0.99087   0.31788   0.00000  Uiso   1.00
H2098  H     0.25250   1.07058   0.31225   0.00000  Uiso   1.00
F2099  F     0.39307   1.18701   0.33300   0.00000  Uiso   1.00
H2100  H     0.54887   1.07594   0.34126   0.00000  Uiso   1.00
C2101  C     0.50332   1.18079   0.24734   0.00000  Uiso   1.00
C2102  C     0.28007   1.09124   0.41954   0.00000  Uiso   1.00
C2103  C     0.37534   1.18692   0.46539   0.00000  Uiso   1.00
C2104  C     0.37032   1.01225   0.33082   0.00000  Uiso   1.00
H2105  H     0.54568   1.18582   0.45602   0.00000  Uiso   1.00
C2106  C     0.52706   1.12408   0.35563   0.00000  Uiso   1.00
C2107  C     0.53062   1.09910   0.37388   0.00000  Uiso   1.00
C2108  C     0.25833   1.10418   0.35204   0.00000  Uiso   1.00
O2109  O     0.45763   1.19268   0.35305   0.00000  Uiso   1.00
C2110  C     0.34424   1.18146   0.46208   0.00000  Uiso   1.00
C2111  C     0.50431   1.09545   0.39141   0.00000  Uiso   1.00
C2112  C     0.29540   1.18705   0.46221   0.00000  Uiso   1.00
H2113  H     0.51604   1.01407   0.29846   0.00000  Uiso   1.00
C2114  C     0.29855   1.20451   0.31610   0.00000  Uiso   1.00
C2115  C     0.41586   1.01609   0.39104   0.00000  Uiso   1.00
C2116  C     0.54276   1.14545   0.36539   0.00000  Uiso   1.00
H2117  H     0.52681   1.14275   0.42376   0.00000  Uiso   1.00
H2118  H     0.45327   1.02740   0.33365   0.00000  Uiso   1.00
C2119  C     0.51791   1.12615   0.32893   0.00000  Uiso   1.00
C2120  C     0.24753   1.18892   0.46468   0.00000  Uiso   1.00
H2121  H     0.29760   1.09516   0.43335   0.00000  Uiso   1.00
C2122  C     0.45872   1.07979   0.27049   0.00000  Uiso   1.00
C2123  C     0.51292   1.04571   0.24656   0.00000  Uiso   1.00
C2124  C     0.23810   1.15727   0.35694   0.00000  Uiso   1.00
C2125  C     0.53406   1.07299   0.35747   0.00000  Uiso   1.00
H2126  H     0.39588   1.17914   0.42550   0.00000  Uiso   1.00
N2127  N     0.52336   1.07646   0.45105   0.00000  Uiso   1.00
O2128  O     0.44361   1.16091   0.40113   0.00000  Uiso   1.00
C2129  C     0.38815   1.16741   0.44334   0.00000  Uiso   1.00
C2130  C     0.34174   1.15774   0.44467   0.00000  Uiso   1.00
C2131  C     0.27548   1.12447   0.35950   0.00000  Uiso   1.00
C2132  C     0.44868   1.16507   0.35229   0.00000  Uiso   1.00
H2133  H     0.29742   1.04808   0.44069   0.00000  Uiso   1.00
C2134  C     0.25098   1.18725   0.23554   0.00000  Uiso   1.00
F2135  F     0.34418   1.17145   0.31147   0.00000  Uiso   1.00
C2136  C     0.33508   1.04358   0.33874   0.00000  Uiso   1.00
C2137  C     0.44185   1.14880   0.37517   0.00000  Uiso   1.00
H2138  H     0.51457   1.21365   0.47011   0.00000  Uiso   1.00
C2139  C     0.46202   1.20207   0.37943   0.00000  Uiso   1.00
C2140  C     0.52790   1.19938   0.28678   0.00000  Uiso   1.00
H2141  H     0.45824   1.09245   0.25229   0.00000  Uiso   1.00
C2142  C     0.24349   1.06519   0.33172   0.00000  Uiso   1.00
H2143  H     0.50768   1.07857   0.40570   0.00000  Uiso   1.00
C2144  C     0.34603   1.04704   0.36434   0.00000  Uiso   1.00
C2145  C     0.24368   1.20066   0.37544   0.00000  Uiso   1.00
C2146  C     0.45434   1.04358   0.31664   0.00000  Uiso   1.00
C2147  C     0.50040   0.99742   0.29750   0.00000  Uiso   1.00
C2148  C     0.32944   1.05601   0.38622   0.00000  Uiso   1.00
H2149  H     0.27775   1.09110   0.22460   0.00000  Uiso   1.00
H2150  H     0.51903   1.05148   0.26772   0.00000  Uiso   1.00
C2151  C     0.37251   1.11880   0.45188   0.00000  Uiso   1.00
C2152  C     0.47400   1.00604   0.28253   0.00000  Uiso   1.00
C2153  C     0.25484   1.06106   0.38417   0.00000  Uiso   1.00
H2154  H     0.54125   1.05687   0.37112   0.00000  Uiso   1.00
C2155  C     0.32366   1.21367   0.32796   0.00000  Uiso   1.00
H2156  H     0.39394   1.11064   0.45130   0.00000  Uiso   1.00
H2157  H     0.50640   1.10546   0.25151   0.00000  Uiso   1.00
H2158  H     0.43248   0.99019   0.28707   0.00000  Uiso   1.00
C2159  C     0.22772   1.17517   0.24868   0.00000  Uiso   1.00
O2160  O     0.22737   1.18280   0.35928   0.00000  Uiso   1.00
H2161  H     0.54875   1.12495   0.46485   0.00000  Uiso   1.00
C2162  C     0.45370   0.98455   0.29314   0.00000  Uiso   1.00
C2163  C     0.50329   1.08245   0.46409   0.00000  Uiso   1.00
C2164  C     0.54802   1.17012   0.35068   0.00000  Uiso   1.00
C2165  C     0.49048   1.15850   0.23598   0.00000  Uiso   1.00
H2166  H     0.52602   1.11383   0.22588   0.00000  Uiso   1.00
H2167  H     0.52783   1.02714   0.24254   0.00000  Uiso   1.00
C2168  C     0.23517   1.13215   0.22339   0.00000  Uiso   1.00
C2169  C     0.36568   0.97886   0.29577   0.00000  Uiso   1.00
H2170  H     0.51035   0.97934   0.28672   0.00000  Uiso   1.00
H2171  H     0.25599   1.06484   0.23103   0.00000  Uiso   1.00
C2172  C     0.26637   1.15094   0.70798   0.00000  Uiso   1.00
C2173  C     0.30478   1.14539   0.54722   0.00000  Uiso   1.00
C2174  C     0.23267   1.06395   0.54974   0.00000  Uiso   1.00
H2175  H     0.51190   1.21235   0.64902   0.00000  Uiso   1.00
C2176  C     0.41456   1.05951   0.57734   0.00000  Uiso   1.00
H2177  H     0.25153   1.05239   0.54437   0.00000  Uiso   1.00
O2178  O     0.41478   1.05889   0.50447   0.00000  Uiso   1.00
H2179  H     0.48136   0.97654   0.56598   0.00000  Uiso   1.00
H2180  H     0.32216   1.09209   0.54939   0.00000  Uiso   1.00
H2181  H     0.26342   1.07278   0.50221   0.00000  Uiso   1.00
H2182  H     0.37293   1.00649   0.69120   0.00000  Uiso   1.00
C2183  C     0.46110   1.12409   0.68504   0.00000  Uiso   1.00
H2184  H     0.41433   1.18926   0.54046   0.00000  Uiso   1.00
C2185  C     0.51577   1.21670   0.59270   0.00000  Uiso   1.00
H2186  H     0.54933   1.00912   0.52886   0.00000  Uiso   1.00
H2187  H     0.31312   1.09116   0.64135   0.00000  Uiso   1.00
C2188  C     0.34797   1.05025   0.65801   0.00000  Uiso   1.00
C2189  C     0.47999   1.16275   0.52846   0.00000  Uiso   1.00
H2190  H     0.43571   1.14948   0.58304   0.00000  Uiso   1.00
H2191  H     0.54898   0.99857   0.56400   0.00000  Uiso   1.00
H2192  H     0.26759   1.10443   0.48346   0.00000  Uiso   1.00
C2193  C     0.29659   1.03450   0.65357   0.00000  Uiso   1.00
H2194  H     0.34047   1.19292   0.52508   0.00000  Uiso   1.00
C2195  C     0.33124   1.07771   0.69606   0.00000  Uiso   1.00
N2196  N     0.53380   1.06011   0.61447   0.00000  Uiso   1.00
C2197  C     0.26584   1.09434   0.50445   0.00000  Uiso   1.00
H2198  H     0.26709   1.00734   0.61650   0.00000  Uiso   1.00
C2199  C     0.30760   0.98986   0.67255   0.00000  Uiso   1.00
C2200  C     0.29503   1.16933   0.55940   0.00000  Uiso   1.00
C2201  C     0.43062   1.03282   0.64130   0.00000  Uiso   1.00
C2202  C     0.50365   1.15632   0.51173   0.00000  Uiso   1.00
O2203  O     0.54459   1.10141   0.54046   0.00000  Uiso   1.00
C2204  C     0.32319   1.03635   0.67199   0.00000  Uiso   1.00
C2205  C     0.30311   1.08241   0.54094   0.00000  Uiso   1.00
H2206  H     0.38710   1.01755   0.57047   0.00000  Uiso   1.00
C2207  C     0.28609   1.12793   0.53450   0.00000  Uiso   1.00
C2208  C     0.42852   1.15804   0.66792   0.00000  Uiso   1.00
H2209  H     0.39279   1.12770   0.60191   0.00000  Uiso   1.00
C2210  C     0.28081   0.99147   0.62871   0.00000  Uiso   1.00
C2211  C     0.38854   1.14889   0.60980   0.00000  Uiso   1.00
C2212  C     0.48483   1.07193   0.57750   0.00000  Uiso   1.00
C2213  C     0.47859   1.01450   0.70884   0.00000  Uiso   1.00
C2214  C     0.26615   1.17288   0.56127   0.00000  Uiso   1.00
C2215  C     0.41036   0.98256   0.49865   0.00000  Uiso   1.00
C2216  C     0.54279   1.14641   0.60229   0.00000  Uiso   1.00
H2217  H     0.28182   1.04991   0.66089   0.00000  Uiso   1.00
N2218  N     0.26561   1.10831   0.67750   0.00000  Uiso   1.00
H2219  H     0.30226   1.03993   0.63136   0.00000  Uiso   1.00
H2220  H     0.44414   1.02687   0.54955   0.00000  Uiso   1.00
H2221  H     0.31913   1.09344   0.47749   0.00000  Uiso   1.00
C2222  C     0.50488   1.09077   0.56886   0.00000  Uiso   1.00
C2223  C     0.50771   1.00624   0.54455   0.00000  Uiso   1.00
C2224  C     0.25695   1.13014   0.53808   0.00000  Uiso   1.00
C2225  C     0.42091   1.03242   0.49542   0.00000  Uiso   1.00
C2226  C     0.35906   1.20441   0.53279   0.00000  Uiso   1.00
H2227  H     0.42657   1.22001   0.51939   0.00000  Uiso   1.00
O2228  O     0.45683   1.14409   0.52985   0.00000  Uiso   1.00
H2229  H     0.50421   1.00316   0.63211   0.00000  Uiso   1.00
C2230  C     0.44433   1.01766   0.56941   0.00000  Uiso   1.00
C2231  C     0.53914   1.07028   0.71107   0.00000  Uiso   1.00
H2232  H     0.47352   1.07610   0.59713   0.00000  Uiso   1.00
C2233  C     0.42869   1.14589   0.64255   0.00000  Uiso   1.00
O2234  O     0.48286   1.09520   0.65065   0.00000  Uiso   1.00
H2235  H     0.40982   1.04226   0.64621   0.00000  Uiso   1.00
O2236  O     0.31183   1.15941   0.69460   0.00000  Uiso   1.00
C2237  C     0.39712   1.01676   0.59107   0.00000  Uiso   1.00
C2238  C     0.52506   1.05614   0.53734   0.00000  Uiso   1.00
C2239  C     0.47432   1.01846   0.57917   0.00000  Uiso   1.00
H2240  H     0.38890   1.19753   0.62872   0.00000  Uiso   1.00
H2241  H     0.40706   1.17233   0.49459   0.00000  Uiso   1.00
C2242  C     0.40964   1.18475   0.66618   0.00000  Uiso   1.00
C2243  C     0.52322   1.06900   0.66373   0.00000  Uiso   1.00
O2244  O     0.48518   1.00332   0.68307   0.00000  Uiso   1.00
O2245  O     0.31366   1.18957   0.57049   0.00000  Uiso   1.00
H2246  H     0.38019   1.16338   0.59417   0.00000  Uiso   1.00
C2247  C     0.50914   1.03663   0.54993   0.00000  Uiso   1.00
C2248  C     0.38135   1.18698   0.68064   0.00000  Uiso   1.00
C2249  C     0.48243   1.01082   0.63313   0.00000  Uiso   1.00
O2250  O     0.25538   1.19603   0.57272   0.00000  Uiso   1.00
C2251  C     0.26586   1.12734   0.69150   0.00000  Uiso   1.00
H2252  H     0.47332   1.00775   0.51234   0.00000  Uiso   1.00
H2253  H     0.35927   1.15060   0.66845   0.00000  Uiso   1.00
H2254  H     0.54505   1.16902   0.50141   0.00000  Uiso   1.00
H2255  H     0.34565   1.05073   0.63418   0.00000  Uiso   1.00
C2256  C     0.31524   1.10769   0.49669   0.00000  Uiso   1.00
H2257  H     0.30159   0.98720   0.61867   0.00000  Uiso   1.00
H2258  H     0.32759   1.14170   0.54526   0.00000  Uiso   1.00
C2259  C     0.49847   1.09676   0.69712   0.00000  Uiso   1.00
H2260  H     0.47866   1.20070   0.63533   0.00000  Uiso   1.00
C2261  C     0.41341   1.16257   0.62118   0.00000  Uiso   1.00
H2262  H     0.40527   1.07077   0.59509   0.00000  Uiso   1.00
C2263  C     0.51804   1.08919   0.71699   0.00000  Uiso   1.00
C2264  C     0.37713   1.08637   0.67504   0.00000  Uiso   1.00
H2265  H     0.42388   1.18535   0.58380   0.00000  Uiso   1.00
C2266  C     0.35785   1.21896   0.71123   0.00000  Uiso   1.00
C2267  C     0.42540   1.20817   0.67955   0.00000  Uiso   1.00
C2268  C     0.44049   1.02928   0.61573   0.00000  Uiso   1.00
H2269  H     0.36720   1.04061   0.65979   0.00000  Uiso   1.00
C2270  C     0.35800   1.17096   0.67952   0.00000  Uiso   1.00
H2271  H     0.44565   1.15728   0.71168   0.00000  Uiso   1.00
C2272  C     0.50579   1.20346   0.54500   0.00000  Uiso   1.00
O2273  O     0.43715   1.03823   0.69021   0.00000  Uiso   1.00
C2274  C     0.28952   1.16800   0.70992   0.00000  Uiso   1.00
C2275  C     0.54099   1.05985   0.68477   0.00000  Uiso   1.00
C2276  C     0.48253   1.18613   0.54451   0.00000  Uiso   1.00
O2277  O     0.50680   1.11553   0.58371   0.00000  Uiso   1.00
H2278  H     0.40066   1.05879   0.56064   0.00000  Uiso   1.00
H2279  H     0.46600   1.19451   0.55905   0.00000  Uiso   1.00
C2280  C     0.52879   1.06345   0.63702   0.00000  Uiso   1.00
C2281  C     0.47962   1.11511   0.49407   0.00000  Uiso   1.00
C2282  C     0.52393   1.08262   0.54791   0.00000  Uiso   1.00
C2283  C     0.52632   1.17367   0.51262   0.00000  Uiso   1.00
C2284  C     0.45745   1.07166   0.48103   0.00000  Uiso   1.00
C2285  C     0.44645   1.02773   0.66533   0.00000  Uiso   1.00
C2286  C     0.47031   1.01208   0.66093   0.00000  Uiso   1.00
C2287  C     0.53813   0.99603   0.54318   0.00000  Uiso   1.00
C2288  C     0.50222   1.08769   0.67059   0.00000  Uiso   1.00
C2289  C     0.46321   1.11386   0.65837   0.00000  Uiso   1.00
H2290  H     0.43813   0.99680   0.56416   0.00000  Uiso   1.00
C2291  C     0.38501   1.17886   0.49463   0.00000  Uiso   1.00
C2292  C     0.40662   1.00998   0.50653   0.00000  Uiso   1.00
C2293  C     0.38322   1.20598   0.51147   0.00000  Uiso   1.00
H2294  H     0.53999   1.04965   0.52277   0.00000  Uiso   1.00
C2295  C     0.43248   1.16838   0.59579   0.00000  Uiso   1.00
C2296  C     0.46752   1.02030   0.61092   0.00000  Uiso   1.00
O2297  O     0.47734   1.11527   0.70594   0.00000  Uiso   1.00
N2298  N     0.51671   1.15385   0.64723   0.00000  Uiso   1.00
H2299  H     0.40160   0.99496   0.59626   0.00000  Uiso   1.00
C2300  C     0.44696   1.12350   0.63746   0.00000  Uiso   1.00
C2301  C     0.49307   0.99564   0.56913   0.00000  Uiso   1.00
C2302  C     0.53287   1.12715   0.58234   0.00000  Uiso   1.00
H2303  H     0.44572   1.11278   0.61676   0.00000  Uiso   1.00
H2304  H     0.43069   1.07477   0.57064   0.00000  Uiso   1.00
C2305  C     0.52828   1.15077   0.62599   0.00000  Uiso   1.00
H2306  H     0.45253   1.17510   0.60495   0.00000  Uiso   1.00
H2307  H     0.48071   1.20872   0.48313   0.00000  Uiso   1.00
C2308  C     0.45766   1.12131   0.51122   0.00000  Uiso   1.00
C2309  C     0.42368   1.03283   0.58874   0.00000  Uiso   1.00
C2310  C     0.47959   1.09025   0.47954   0.00000  Uiso   1.00
H2311  H     0.53842   0.97415   0.53548   0.00000  Uiso   1.00
H2312  H     0.37956   1.02233   0.60579   0.00000  Uiso   1.00
C2313  C     0.29304   1.10173   0.51863   0.00000  Uiso   1.00
C2314  C     0.41184   1.11114   0.52986   0.00000  Uiso   1.00
H2315  H     0.37734   1.10777   0.68440   0.00000  Uiso   1.00
C2316  C     0.43549   1.07756   0.49978   0.00000  Uiso   1.00
C2317  C     0.24213   1.10896   0.52016   0.00000  Uiso   1.00
C2318  C     0.43434   1.10400   0.51290   0.00000  Uiso   1.00
N2319  N     0.39269   1.11761   0.54224   0.00000  Uiso   1.00
H2320  H     0.37245   1.14642   0.62603   0.00000  Uiso   1.00
H2321  H     0.49364   0.97519   0.51399   0.00000  Uiso   1.00
C2322  C     0.44432   1.14780   0.68983   0.00000  Uiso   1.00
C2323  C     0.48954   1.04461   0.57037   0.00000  Uiso   1.00
C2324  C     0.35468   0.99443   0.68783   0.00000  Uiso   1.00
C2325  C     0.31900   1.05091   0.69827   0.00000  Uiso   1.00
C2326  C     0.52766   1.19702   0.52760   0.00000  Uiso   1.00
H2327  H     0.38416   1.07361   0.69136   0.00000  Uiso   1.00
O2328  O     0.50330   1.13283   0.49245   0.00000  Uiso   1.00
H2329  H     0.33664   1.11144   0.50531   0.00000  Uiso   1.00
H2330  H     0.34633   1.09392   0.62839   0.00000  Uiso   1.00
C2331  C     0.33444   1.20281   0.71073   0.00000  Uiso   1.00
H2332  H     0.22500   1.16471   0.64870   0.00000  Uiso   1.00
H2333  H     0.30771   1.06178   0.53305   0.00000  Uiso   1.00
H2334  H     0.37339   1.16089   0.50029   0.00000  Uiso   1.00
H2335  H     0.42523   1.20478   0.62705   0.00000  Uiso   1.00
C2336  C     0.22477   1.08820   0.53633   0.00000  Uiso   1.00
H2337  H     0.28986   1.08047   0.55806   0.00000  Uiso   1.00
H2338  H     0.25933   1.01810   0.69072   0.00000  Uiso   1.00
C2339  C     0.45636   1.03379   0.71229   0.00000  Uiso   1.00
C2340  C     0.25799   1.00386   0.67272   0.00000  Uiso   1.00
H2341  H     0.33608   1.12036   0.65053   0.00000  Uiso   1.00
H2342  H     0.36453   1.19128   0.55007   0.00000  Uiso   1.00
H2343  H     0.31010   1.12745   0.48643   0.00000  Uiso   1.00
C2344  C     0.28471   1.00546   0.65631   0.00000  Uiso   1.00
H2345  H     0.39407   1.01664   0.52480   0.00000  Uiso   1.00
C2346  C     0.32976   1.00552   0.67840   0.00000  Uiso   1.00
C2347  C     0.33490   1.17796   0.69533   0.00000  Uiso   1.00
H2348  H     0.23892   1.01068   0.66228   0.00000  Uiso   1.00
H2349  H     0.39245   1.08788   0.65841   0.00000  Uiso   1.00
C2350  C     0.24693   1.15406   0.55096   0.00000  Uiso   1.00
H2351  H     0.50834   1.19588   0.59752   0.00000  Uiso   1.00
H2352  H     0.50663   1.00800   0.49992   0.00000  Uiso   1.00
C2353  C     0.40783   1.18983   0.63485   0.00000  Uiso   1.00
C2354  C     0.34802   1.07958   0.66813   0.00000  Uiso   1.00
C2355  C     0.32847   1.09700   0.71621   0.00000  Uiso   1.00
H2356  H     0.43533   1.19930   0.69811   0.00000  Uiso   1.00
C2357  C     0.33495   1.09773   0.64639   0.00000  Uiso   1.00
C2358  C     0.37967   1.21119   0.69579   0.00000  Uiso   1.00
H2359  H     0.36711   0.97989   0.52973   0.00000  Uiso   1.00
C2360  C     0.49376   0.99819   0.51674   0.00000  Uiso   1.00
C2361  C     0.40990   1.21012   0.52957   0.00000  Uiso   1.00
H2362  H     0.50934   0.99276   0.58495   0.00000  Uiso   1.00
H2363  H     0.33767   1.11828   0.71185   0.00000  Uiso   1.00
H2364  H     0.25375   0.98205   0.67946   0.00000  Uiso   1.00
C2365  C     0.54908   1.22167   0.53105   0.00000  Uiso   1.00
H2366  H     0.32146   1.21388   0.48459   0.00000  Uiso   1.00
C2367  C     0.42535   0.97782   0.47416   0.00000  Uiso   1.00
C2368  C     0.44013   1.02702   0.47444   0.00000  Uiso   1.00
H2369  H     0.44172   1.21695   0.66694   0.00000  Uiso   1.00
C2370  C     0.30226   1.21162   0.58471   0.00000  Uiso   1.00
H2371  H     0.22471   1.15652   0.55484   0.00000  Uiso   1.00
C2372  C     0.27344   1.21581   0.58423   0.00000  Uiso   1.00
H2373  H     0.35867   0.97356   0.57561   0.00000  Uiso   1.00
O2374  O     0.27254   1.19821   0.47490   0.00000  Uiso   1.00
H2375  H     0.22402   1.18623   0.61852   0.00000  Uiso   1.00
H2376  H     0.26826   0.97257   0.63125   0.00000  Uiso   1.00
H2377  H     0.37004   1.12170   0.47389   0.00000  Uiso   1.00
C2378  C     0.55125   1.12032   0.56067   0.00000  Uiso   1.00
H2379  H     0.22919   1.14391   0.49665   0.00000  Uiso   1.00
C2380  C     0.49285   1.21997   0.64016   0.00000  Uiso   1.00
H2381  H     0.53800   1.21642   0.59556   0.00000  Uiso   1.00
C2382  C     0.22283   1.21472   0.49784   0.00000  Uiso   1.00
C2383  C     0.52762   1.12337   0.85893   0.00000  Uiso   1.00
C2384  C     0.40655   1.15400   0.77924   0.00000  Uiso   1.00
H2385  H     0.54161   1.01426   0.82062   0.00000  Uiso   1.00
C2386  C     0.37201   1.15237   0.90710   0.00000  Uiso   1.00
C2387  C     0.30068   1.10422   0.78321   0.00000  Uiso   1.00
C2388  C     0.26714   1.19532   0.74469   0.00000  Uiso   1.00
C2389  C     0.41929   1.18340   0.77476   0.00000  Uiso   1.00
C2390  C     0.44719   1.01543   0.90620   0.00000  Uiso   1.00
C2391  C     0.53070   1.08258   0.82962   0.00000  Uiso   1.00
N2392  N     0.41047   1.07839   0.91455   0.00000  Uiso   1.00
H2393  H     0.41809   1.00073   0.96096   0.00000  Uiso   1.00
O2394  O     0.47572   1.06756   0.77789   0.00000  Uiso   1.00
H2395  H     0.37598   1.12386   0.76755   0.00000  Uiso   1.00
H2396  H     0.23822   0.99024   0.95141   0.00000  Uiso   1.00
O2397  O     0.47801   1.22156   0.90109   0.00000  Uiso   1.00
H2398  H     0.26491   1.13290   0.94925   0.00000  Uiso   1.00
H2399  H     0.51951   1.13424   0.84060   0.00000  Uiso   1.00
C2400  C     0.23887   1.16589   0.87770   0.00000  Uiso   1.00
C2401  C     0.37502   1.14485   0.82427   0.00000  Uiso   1.00
C2402  C     0.46883   1.16401   0.95077   0.00000  Uiso   1.00
C2403  C     0.42957   1.19513   0.80181   0.00000  Uiso   1.00
C2404  C     0.49394   1.02623   0.75333   0.00000  Uiso   1.00
N2405  N     0.31798   1.17130   0.80030   0.00000  Uiso   1.00
O2406  O     0.46754   1.03450   0.90400   0.00000  Uiso   1.00
C2407  C     0.45889   1.18710   0.81052   0.00000  Uiso   1.00
O2408  O     0.38187   1.17571   0.89173   0.00000  Uiso   1.00
C2409  C     0.52441   0.98756   0.88426   0.00000  Uiso   1.00
H2410  H     0.22782   1.15902   0.96111   0.00000  Uiso   1.00
C2411  C     0.47711   1.20935   0.79659   0.00000  Uiso   1.00
C2412  C     0.51321   1.03911   0.79605   0.00000  Uiso   1.00
C2413  C     0.30280   1.06516   0.74363   0.00000  Uiso   1.00
F2414  F     0.27450   1.07692   0.86074   0.00000  Uiso   1.00
H2415  H     0.26262   1.01928   0.87935   0.00000  Uiso   1.00
H2416  H     0.29257   1.15870   0.94966   0.00000  Uiso   1.00
C2417  C     0.28277   1.06873   0.81285   0.00000  Uiso   1.00
N2418  N     0.52073   1.11630   0.76110   0.00000  Uiso   1.00
C2419  C     0.47273   1.20626   0.92480   0.00000  Uiso   1.00
H2420  H     0.32672   1.20095   0.81070   0.00000  Uiso   1.00
O2421  O     0.33125   1.21363   0.82619   0.00000  Uiso   1.00
C2422  C     0.38351   1.14310   0.75852   0.00000  Uiso   1.00
H2423  H     0.52020   1.16977   0.96107   0.00000  Uiso   1.00
H2424  H     0.36694   1.12478   0.81483   0.00000  Uiso   1.00
H2425  H     0.22787   1.11316   0.92594   0.00000  Uiso   1.00
C2426  C     0.45483   1.05178   0.73497   0.00000  Uiso   1.00
C2427  C     0.40750   1.18164   0.82132   0.00000  Uiso   1.00
C2428  C     0.47467   1.04892   0.75538   0.00000  Uiso   1.00
C2429  C     0.37785   1.15144   0.93511   0.00000  Uiso   1.00
C2430  C     0.39616   1.00907   0.91195   0.00000  Uiso   1.00
O2431  O     0.28999   1.05700   0.76697   0.00000  Uiso   1.00
H2432  H     0.29496   1.02502   0.72366   0.00000  Uiso   1.00
C2433  C     0.41450   1.05491   0.91260   0.00000  Uiso   1.00
H2434  H     0.44270   1.13266   0.79970   0.00000  Uiso   1.00
C2435  C     0.29058   1.20677   0.85188   0.00000  Uiso   1.00
C2436  C     0.46917   1.16363   0.90058   0.00000  Uiso   1.00
C2437  C     0.25929   0.99686   0.94758   0.00000  Uiso   1.00
C2438  C     0.45176   0.98754   0.90299   0.00000  Uiso   1.00
O2439  O     0.35290   1.08120   0.95160   0.00000  Uiso   1.00
C2440  C     0.43459   1.07037   0.73756   0.00000  Uiso   1.00
H2441  H     0.38967   1.14415   0.73677   0.00000  Uiso   1.00
H2442  H     0.43619   1.18224   0.75959   0.00000  Uiso   1.00
O2443  O     0.47745   0.97629   0.89537   0.00000  Uiso   1.00
C2444  C     0.49321   1.02416   0.89392   0.00000  Uiso   1.00
H2445  H     0.49479   1.10549   0.81276   0.00000  Uiso   1.00
C2446  C     0.29292   1.11385   0.83158   0.00000  Uiso   1.00
H2447  H     0.44886   1.08420   0.96052   0.00000  Uiso   1.00
C2448  C     0.50781   1.08602   0.81215   0.00000  Uiso   1.00
H2449  H     0.27268   0.98510   0.96092   0.00000  Uiso   1.00
C2450  C     0.27795   1.14827   0.93738   0.00000  Uiso   1.00
O2451  O     0.51054   1.01923   0.77621   0.00000  Uiso   1.00
N2452  N     0.40179   1.19102   0.95855   0.00000  Uiso   1.00
C2453  C     0.53859   1.18079   0.95633   0.00000  Uiso   1.00
C2454  C     0.32109   1.00991   0.91754   0.00000  Uiso   1.00
C2455  C     0.51919   1.10365   0.74113   0.00000  Uiso   1.00
H2456  H     0.29730   1.18496   0.85708   0.00000  Uiso   1.00
H2457  H     0.26838   1.21353   0.91657   0.00000  Uiso   1.00
H2458  H     0.29012   1.13650   0.92204   0.00000  Uiso   1.00
H2459  H     0.53448   1.20256   0.96059   0.00000  Uiso   1.00
C2460  C     0.23147   1.15112   0.85406   0.00000  Uiso   1.00
C2461  C     0.53167   1.03494   0.81782   0.00000  Uiso   1.00
H2462  H     0.36417   1.15561   0.76181   0.00000  Uiso   1.00
C2463  C     0.24352   1.17895   0.74193   0.00000  Uiso   1.00
C2464  C     0.49837   1.22115   0.81811   0.00000  Uiso   1.00
C2465  C     0.37085   1.12792   0.95041   0.00000  Uiso   1.00
H2466  H     0.47659   1.19262   0.75586   0.00000  Uiso   1.00
C2467  C     0.41918   1.02604   0.90992   0.00000  Uiso   1.00
C2468  C     0.38376   1.17119   0.86410   0.00000  Uiso   1.00
C2469  C     0.24044   1.15060   0.90393   0.00000  Uiso   1.00
O2470  O     0.31240   1.20931   0.72730   0.00000  Uiso   1.00
O2471  O     0.31268   1.11349   0.75896   0.00000  Uiso   1.00
C2472  C     0.25626   1.16804   0.92451   0.00000  Uiso   1.00
N2473  N     0.26395   1.01826   0.81912   0.00000  Uiso   1.00
H2474  H     0.25932   1.01714   0.95725   0.00000  Uiso   1.00
C2475  C     0.26825   1.21559   0.76370   0.00000  Uiso   1.00
C2476  C     0.54818   1.10141   0.84862   0.00000  Uiso   1.00
H2477  H     0.54004   1.18061   0.93324   0.00000  Uiso   1.00
C2478  C     0.23735   1.17643   0.94807   0.00000  Uiso   1.00
H2479  H     0.40188   1.19461   0.76648   0.00000  Uiso   1.00
F2480  F     0.29083   1.13260   0.85302   0.00000  Uiso   1.00
C2481  C     0.49189   1.19951   0.77227   0.00000  Uiso   1.00
H2482  H     0.50613   1.06701   0.88800   0.00000  Uiso   1.00
O2483  O     0.46236   1.13505   0.95000   0.00000  Uiso   1.00
C2484  C     0.53667   1.03475   0.87603   0.00000  Uiso   1.00
H2485  H     0.44057   1.12846   0.76418   0.00000  Uiso   1.00
C2486  C     0.27282   1.04045   0.81603   0.00000  Uiso   1.00
C2487  C     0.35028   1.10848   0.91002   0.00000  Uiso   1.00
N2488  N     0.33009   1.06908   0.88226   0.00000  Uiso   1.00
O2489  O     0.35623   1.13032   0.86552   0.00000  Uiso   1.00
C2490  C     0.34895   1.00102   0.91533   0.00000  Uiso   1.00
C2491  C     0.49816   1.06425   0.79495   0.00000  Uiso   1.00
H2492  H     0.46438   1.16595   0.80623   0.00000  Uiso   1.00
C2493  C     0.42827   1.13157   0.78262   0.00000  Uiso   1.00
C2494  C     0.31115   1.14853   0.80383   0.00000  Uiso   1.00
C2495  C     0.37144   1.14885   0.85176   0.00000  Uiso   1.00
C2496  C     0.46955   1.17849   0.92578   0.00000  Uiso   1.00
H2497  H     0.54358   1.07926   0.93478   0.00000  Uiso   1.00
C2498  C     0.24849   1.19596   0.88143   0.00000  Uiso   1.00
C2499  C     0.49798   0.99555   0.89066   0.00000  Uiso   1.00
H2500  H     0.26349   0.97327   0.88122   0.00000  Uiso   1.00
C2501  C     0.35801   1.10692   0.93771   0.00000  Uiso   1.00
C2502  C     0.25926   1.01974   0.90171   0.00000  Uiso   1.00
H2503  H     0.41086   1.20696   0.85769   0.00000  Uiso   1.00
C2504  C     0.33890   1.08634   0.89531   0.00000  Uiso   1.00
C2505  C     0.35740   1.13058   0.89446   0.00000  Uiso   1.00
C2506  C     0.49758   1.01136   0.72868   0.00000  Uiso   1.00
C2507  C     0.30583   1.04549   0.72300   0.00000  Uiso   1.00
C2508  C     0.53994   1.05616   0.83383   0.00000  Uiso   1.00
H2509  H     0.50950   1.11299   0.86861   0.00000  Uiso   1.00
H2510  H     0.50615   1.18151   0.77756   0.00000  Uiso   1.00
C2511  C     0.31410   1.09168   0.74016   0.00000  Uiso   1.00
H2512  H     0.28778   1.18969   0.90360   0.00000  Uiso   1.00
C2513  C     0.39095   1.17299   0.94823   0.00000  Uiso   1.00
H2514  H     0.31900   1.03099   0.92384   0.00000  Uiso   1.00
C2515  C     0.28334   1.08644   0.83580   0.00000  Uiso   1.00
C2516  C     0.51233   1.04405   0.88776   0.00000  Uiso   1.00
H2517  H     0.27098   1.03514   0.91221   0.00000  Uiso   1.00
H2518  H     0.24834   1.18924   0.96211   0.00000  Uiso   1.00
O2519  O     0.36929   1.02032   0.91606   0.00000  Uiso   1.00
C2520  C     0.51739   0.98946   0.72690   0.00000  Uiso   1.00
N2521  N     0.46983   1.15146   0.87937   0.00000  Uiso   1.00
C2522  C     0.54335   1.00699   0.87654   0.00000  Uiso   1.00
C2523  C     0.39504   1.15935   0.80832   0.00000  Uiso   1.00
H2524  H     0.23174   1.16251   0.83415   0.00000  Uiso   1.00
C2525  C     0.30216   1.12148   0.80602   0.00000  Uiso   1.00
C2526  C     0.40190   1.18773   0.84870   0.00000  Uiso   1.00
H2527  H     0.46074   1.18764   0.83366   0.00000  Uiso   1.00
C2528  C     0.26897   0.99599   0.91761   0.00000  Uiso   1.00
C2529  C     0.29019   1.07764   0.78735   0.00000  Uiso   1.00
C2530  C     0.22993   1.12454   0.90536   0.00000  Uiso   1.00
C2531  C     0.26595   1.19332   0.90773   0.00000  Uiso   1.00
C2532  C     0.22283   1.21505   0.88439   0.00000  Uiso   1.00
H2533  H     0.23833   1.02479   0.90643   0.00000  Uiso   1.00
H2534  H     0.50811   1.20444   0.82869   0.00000  Uiso   1.00
H2535  H     0.41776   1.11162   0.78629   0.00000  Uiso   1.00
H2536  H     0.53612   1.13709   0.87410   0.00000  Uiso   1.00
C2537  C     0.40191   0.98066   0.90932   0.00000  Uiso   1.00
C2538  C     0.30006   0.99148   0.91783   0.00000  Uiso   1.00
H2539  H     0.50320   1.21645   0.76211   0.00000  Uiso   1.00
C2540  C     0.47040   1.22070   0.95145   0.00000  Uiso   1.00
C2541  C     0.26382   1.21259   0.85978   0.00000  Uiso   1.00
N2542  N     0.41632   1.08567   0.73959   0.00000  Uiso   1.00
C2543  C     0.22388   1.12323   0.85544   0.00000  Uiso   1.00
C2544  C     0.28959   1.19176   0.72671   0.00000  Uiso   1.00
H2545  H     0.54859   1.08221   0.88918   0.00000  Uiso   1.00
H2546  H     0.36623   1.03356   0.96616   0.00000  Uiso   1.00
C2547  C     0.24298   1.15678   0.72328   0.00000  Uiso   1.00
H2548  H     0.52003   1.06809   1.04916   0.00000  Uiso   1.00
O2549  O     0.42522   1.05811   1.15876   0.00000  Uiso   1.00
O2550  O     0.36677   1.09536   1.08750   0.00000  Uiso   1.00
C2551  C     0.39703   1.07730   1.12203   0.00000  Uiso   1.00
C2552  C     0.42086   1.07907   1.13797   0.00000  Uiso   1.00
C2553  C     0.38956   1.09906   1.10343   0.00000  Uiso   1.00
C2554  C     0.24889   1.18504   1.11157   0.00000  Uiso   1.00
H2555  H     0.50382   1.04574   1.02920   0.00000  Uiso   1.00
O2556  O     0.47651   1.16380   0.99980   0.00000  Uiso   1.00
C2557  C     0.32162   1.14152   1.04933   0.00000  Uiso   1.00
H2558  H     0.45770   1.01312   1.01395   0.00000  Uiso   1.00
C2559  C     0.41456   1.01757   1.00260   0.00000  Uiso   1.00
C2560  C     0.37168   1.14373   1.07743   0.00000  Uiso   1.00
H2561  H     0.53575   1.09106   1.00447   0.00000  Uiso   1.00
C2562  C     0.47895   1.12167   1.02432   0.00000  Uiso   1.00
H2563  H     0.47778   1.08160   1.09805   0.00000  Uiso   1.00
H2564  H     0.55520   1.04569   1.00737   0.00000  Uiso   1.00
C2565  C     0.46562   1.08551   1.17242   0.00000  Uiso   1.00
C2566  C     0.53956   1.15569   1.13216   0.00000  Uiso   1.00
C2567  C     0.43792   1.10256   1.13657   0.00000  Uiso   1.00
H2568  H     0.54088   1.04428   1.19434   0.00000  Uiso   1.00
C2569  C     0.54642   1.21224   1.11660   0.00000  Uiso   1.00
O2570  O     0.46206   1.10516   1.15210   0.00000  Uiso   1.00
O2571  O     0.54172   1.20005   1.06984   0.00000  Uiso   1.00
C2572  C     0.48873   1.08731   1.18778   0.00000  Uiso   1.00
H2573  H     0.35682   1.19291   1.01694   0.00000  Uiso   1.00
C2574  C     0.41122   0.99352   0.98178   0.00000  Uiso   1.00
C2575  C     0.55537   1.04772   0.98545   0.00000  Uiso   1.00
O2576  O     0.53788   1.16877   1.18022   0.00000  Uiso   1.00
C2577  C     0.42945   1.12405   1.12119   0.00000  Uiso   1.00
H2578  H     0.27972   1.18306   1.05052   0.00000  Uiso   1.00
C2579  C     0.40528   1.12321   1.10627   0.00000  Uiso   1.00
C2580  C     0.44620   1.14755   1.12040   0.00000  Uiso   1.00
N2581  N     0.45941   1.16725   1.12089   0.00000  Uiso   1.00
O2582  O     0.39515   1.14632   1.09327   0.00000  Uiso   1.00
H2583  H     0.38213   1.00085   1.03069   0.00000  Uiso   1.00
C2584  C     0.44306   1.05695   1.01836   0.00000  Uiso   1.00
C2585  C     0.46108   1.08028   1.00523   0.00000  Uiso   1.00
H2586  H     0.50358   1.10284   1.18328   0.00000  Uiso   1.00
C2587  C     0.44910   1.06257   1.17553   0.00000  Uiso   1.00
C2588  C     0.26180   1.12929   1.18017   0.00000  Uiso   1.00
C2589  C     0.40333   1.00605   1.02981   0.00000  Uiso   1.00
C2590  C     0.45085   1.04531   1.19856   0.00000  Uiso   1.00
C2591  C     0.40077   1.04418   0.99545   0.00000  Uiso   1.00
C2592  C     0.46640   1.12088   0.97540   0.00000  Uiso   1.00
C2593  C     0.47381   1.09336   1.02690   0.00000  Uiso   1.00
H2594  H     0.40400   1.22092   1.09797   0.00000  Uiso   1.00
H2595  H     0.29961   1.10467   1.18106   0.00000  Uiso   1.00
C2596  C     0.47435   1.13527   0.99949   0.00000  Uiso   1.00
H2597  H     0.40476   1.02205   1.04680   0.00000  Uiso   1.00
C2598  C     0.54685   1.09852   0.98497   0.00000  Uiso   1.00
C2599  C     0.27047   1.16694   1.11276   0.00000  Uiso   1.00
H2600  H     0.32696   1.15050   1.11740   0.00000  Uiso   1.00
C2601  C     0.32425   1.14296   1.13822   0.00000  Uiso   1.00
C2602  C     0.25384   1.14690   1.15551   0.00000  Uiso   1.00
C2603  C     0.46889   1.22048   1.00171   0.00000  Uiso   1.00
H2604  H     0.31342   1.14042   0.99359   0.00000  Uiso   1.00
C2605  C     0.29475   1.10165   1.13039   0.00000  Uiso   1.00
C2606  C     0.53942   1.17691   1.15295   0.00000  Uiso   1.00
C2607  C     0.38720   1.09992   0.98398   0.00000  Uiso   1.00
C2608  C     0.50140   1.05605   1.04944   0.00000  Uiso   1.00
C2609  C     0.47589   1.07492   1.05188   0.00000  Uiso   1.00
C2610  C     0.23569   1.10119   1.21585   0.00000  Uiso   1.00
H2611  H     0.32039   1.09816   1.05525   0.00000  Uiso   1.00
N2612  N     0.36464   1.03400   1.12555   0.00000  Uiso   1.00
C2613  C     0.49395   1.06933   1.20925   0.00000  Uiso   1.00
C2614  C     0.47329   1.05027   1.21681   0.00000  Uiso   1.00
H2615  H     0.50188   1.10338   1.07541   0.00000  Uiso   1.00
H2616  H     0.28628   1.16923   1.09634   0.00000  Uiso   1.00
C2617  C     0.55008   1.18657   1.02347   0.00000  Uiso   1.00
H2618  H     0.24921   1.08400   1.17724   0.00000  Uiso   1.00
N2619  N     0.54382   1.10479   1.14291   0.00000  Uiso   1.00
H2620  H     0.41472   0.98630   1.03559   0.00000  Uiso   1.00
C2621  C     0.48105   1.09285   1.07758   0.00000  Uiso   1.00
C2622  C     0.29625   1.12893   1.14508   0.00000  Uiso   1.00
C2623  C     0.27458   1.14917   1.13494   0.00000  Uiso   1.00
C2624  C     0.26954   1.13141   1.04467   0.00000  Uiso   1.00
O2625  O     0.24497   1.20238   1.08882   0.00000  Uiso   1.00
H2626  H     0.30426   1.13995   1.18836   0.00000  Uiso   1.00
H2627  H     0.27948   1.18146   1.20234   0.00000  Uiso   1.00
H2628  H     0.44984   1.04054   1.06055   0.00000  Uiso   1.00
C2629  C     0.54403   1.06344   1.20820   0.00000  Uiso   1.00
C2630  C     0.54103   1.16393   1.10468   0.00000  Uiso   1.00
H2631  H     0.48967   1.13410   1.04205   0.00000  Uiso   1.00
C2632  C     0.54198   1.12789   1.13806   0.00000  Uiso   1.00
C2633  C     0.24404   1.10447   1.18475   0.00000  Uiso   1.00
C2634  C     0.32052   1.18947   1.03645   0.00000  Uiso   1.00
C2635  C     0.33601   1.16674   1.05151   0.00000  Uiso   1.00
H2636  H     0.28092   1.18459   1.01544   0.00000  Uiso   1.00
H2637  H     0.26940   1.10931   1.04178   0.00000  Uiso   1.00
H2638  H     0.30301   1.10389   1.10815   0.00000  Uiso   1.00
C2639  C     0.36084   1.16742   1.06538   0.00000  Uiso   1.00
H2640  H     0.25058   1.13753   1.03387   0.00000  Uiso   1.00
C2641  C     0.25376   1.14676   1.20706   0.00000  Uiso   1.00
H2642  H     0.33373   1.18709   0.99064   0.00000  Uiso   1.00
C2643  C     0.26177   1.17343   1.21251   0.00000  Uiso   1.00
H2644  H     0.43679   1.02734   1.19983   0.00000  Uiso   1.00
H2645  H     0.38974   0.98738   0.98165   0.00000  Uiso   1.00
C2646  C     0.29499   1.14562   1.03362   0.00000  Uiso   1.00
H2647  H     0.27702   1.14132   0.99314   0.00000  Uiso   1.00
C2648  C     0.29253   1.17590   1.03364   0.00000  Uiso   1.00
C2649  C     0.37908   1.05326   1.12426   0.00000  Uiso   1.00
C2650  C     0.41520   1.06661   1.00755   0.00000  Uiso   1.00
H2651  H     0.30024   1.20893   1.08908   0.00000  Uiso   1.00
C2652  C     0.44844   1.06030   1.04882   0.00000  Uiso   1.00
H2653  H     0.43363   1.07383   1.05873   0.00000  Uiso   1.00
C2654  C     0.35770   1.11858   1.07483   0.00000  Uiso   1.00
H2655  H     0.32674   1.16188   1.15189   0.00000  Uiso   1.00
H2656  H     0.26830   1.13578   1.06655   0.00000  Uiso   1.00
O2657  O     0.49857   1.20683   1.20574   0.00000  Uiso   1.00
C2658  C     0.33660   1.19794   1.01034   0.00000  Uiso   1.00
H2659  H     0.29418   1.11217   1.00506   0.00000  Uiso   1.00
C2660  C     0.29529   1.13406   1.00443   0.00000  Uiso   1.00
H2661  H     0.46683   1.11091   1.07789   0.00000  Uiso   1.00
H2662  H     0.34108   1.12879   1.14248   0.00000  Uiso   1.00
C2663  C     0.47126   1.20665   0.97637   0.00000  Uiso   1.00
C2664  C     0.37643   1.04918   0.97967   0.00000  Uiso   1.00
O2665  O     0.38116   1.12655   0.97685   0.00000  Uiso   1.00
C2666  C     0.29325   1.12442   1.17562   0.00000  Uiso   1.00
H2667  H     0.37205   1.18693   1.06812   0.00000  Uiso   1.00
C2668  C     0.33202   1.11693   1.06086   0.00000  Uiso   1.00
C2669  C     0.45960   1.09295   0.97942   0.00000  Uiso   1.00
C2670  C     0.40504   1.09383   1.00516   0.00000  Uiso   1.00
H2671  H     0.41702   1.11026   1.01657   0.00000  Uiso   1.00
C2672  C     0.44446   1.02845   1.00548   0.00000  Uiso   1.00
H2673  H     0.50206   1.04233   1.06654   0.00000  Uiso   1.00
H2674  H     0.27222   1.09731   1.12657   0.00000  Uiso   1.00
H2675  H     0.30509   1.08427   1.13948   0.00000  Uiso   1.00
O2676  O     0.54032   1.14244   1.08516   0.00000  Uiso   1.00
H2677  H     0.53333   1.04376   0.97641   0.00000  Uiso   1.00
C2678  C     0.54713   1.15045   1.05786   0.00000  Uiso   1.00
C2679  C     0.55478   1.13146   1.03727   0.00000  Uiso   1.00
C2680  C     0.54650   1.17913   1.05003   0.00000  Uiso   1.00
C2681  C     0.54244   1.19207   1.09739   0.00000  Uiso   1.00
N2682  N     0.52097   0.97988   1.19452   0.00000  Uiso   1.00
H2683  H     0.54883   1.20803   1.01786   0.00000  Uiso   1.00
H2684  H     0.42529   0.97662   0.98921   0.00000  Uiso   1.00
C2685  C     0.54574   1.20436   1.14491   0.00000  Uiso   1.00
H2686  H     0.22465   1.10809   1.17343   0.00000  Uiso   1.00
C2687  C     0.31842   1.21726   1.04957   0.00000  Uiso   1.00
H2688  H     0.54762   1.08097   1.19450   0.00000  Uiso   1.00
C2689  C     0.47204   1.17816   0.97604   0.00000  Uiso   1.00
C2690  C     0.23144   1.16352   1.15347   0.00000  Uiso   1.00
H2691  H     0.44936   1.02963   0.98234   0.00000  Uiso   1.00
C2692  C     0.22983   1.18489   1.13434   0.00000  Uiso   1.00
C2693  C     0.37259   1.07615   0.97225   0.00000  Uiso   1.00
H2694  H     0.52849   1.10308   0.97365   0.00000  Uiso   1.00
C2695  C     0.63954   0.23386   0.24779   0.00000  Uiso   1.00
C2696  C     0.80143   0.38079   0.30722   0.00000  Uiso   1.00
O2697  O     0.77838   0.39691   0.31552   0.00000  Uiso   1.00
H2698  H     0.75216   0.43123   0.34437   0.00000  Uiso   1.00
C2699  C     0.66811   0.24151   0.23631   0.00000  Uiso   1.00
H2700  H     0.78664   0.46990   0.38590   0.00000  Uiso   1.00
C2701  C     0.79919   0.35263   0.30631   0.00000  Uiso   1.00
H2702  H     0.79742   0.30363   0.35170   0.00000  Uiso   1.00
O2703  O     0.70086   0.25444   0.36429   0.00000  Uiso   1.00
C2704  C     0.81256   0.46624   0.31221   0.00000  Uiso   1.00
H2705  H     0.65647   0.32190   0.27473   0.00000  Uiso   1.00
C2706  C     0.74168   0.25077   0.42774   0.00000  Uiso   1.00
H2707  H     0.66043   0.42888   0.26066   0.00000  Uiso   1.00
H2708  H     0.70995   0.33129   0.40516   0.00000  Uiso   1.00
H2709  H     0.57514   0.40879   0.40076   0.00000  Uiso   1.00
C2710  C     0.72247   0.25611   0.38133   0.00000  Uiso   1.00
C2711  C     0.62036   0.39147   0.24398   0.00000  Uiso   1.00
H2712  H     0.65348   0.44179   0.29467   0.00000  Uiso   1.00
C2713  C     0.87615   0.38959   0.28889   0.00000  Uiso   1.00
H2714  H     0.83519   0.25758   0.35725   0.00000  Uiso   1.00
C2715  C     0.56988   0.35828   0.44100   0.00000  Uiso   1.00
C2716  C     0.57805   0.36531   0.27007   0.00000  Uiso   1.00
H2717  H     0.62786   0.25276   0.24508   0.00000  Uiso   1.00
O2718  O     0.73326   0.32994   0.22300   0.00000  Uiso   1.00
C2719  C     0.67647   0.27170   0.24026   0.00000  Uiso   1.00
H2720  H     0.67949   0.27834   0.26245   0.00000  Uiso   1.00
H2721  H     0.58687   0.36046   0.37652   0.00000  Uiso   1.00
H2722  H     0.69467   0.29592   0.40378   0.00000  Uiso   1.00
H2723  H     0.80032   0.25671   0.34472   0.00000  Uiso   1.00
C2724  C     0.86212   0.24644   0.30721   0.00000  Uiso   1.00
C2725  C     0.75447   0.44880   0.41635   0.00000  Uiso   1.00
C2726  C     0.76604   0.26219   0.41882   0.00000  Uiso   1.00
C2727  C     0.62159   0.23824   0.39682   0.00000  Uiso   1.00
H2728  H     0.62210   0.36981   0.36982   0.00000  Uiso   1.00
C2729  C     0.71822   0.47115   0.23851   0.00000  Uiso   1.00
H2730  H     0.82033   0.25779   0.30093   0.00000  Uiso   1.00
H2731  H     0.64025   0.39924   0.43341   0.00000  Uiso   1.00
H2732  H     0.72049   0.30561   0.42731   0.00000  Uiso   1.00
H2733  H     0.61897   0.30522   0.25678   0.00000  Uiso   1.00
C2734  C     0.67183   0.28993   0.45049   0.00000  Uiso   1.00
H2735  H     0.71735   0.42838   0.31415   0.00000  Uiso   1.00
C2736  C     0.65159   0.25430   0.36082   0.00000  Uiso   1.00
C2737  C     0.68038   0.31781   0.43832   0.00000  Uiso   1.00
C2738  C     0.72105   0.35187   0.23793   0.00000  Uiso   1.00
C2739  C     0.73567   0.37526   0.24685   0.00000  Uiso   1.00
C2740  C     0.69284   0.34920   0.24648   0.00000  Uiso   1.00
C2741  C     0.68186   0.36837   0.26387   0.00000  Uiso   1.00
N2742  N     0.83551   0.42512   0.41626   0.00000  Uiso   1.00
C2743  C     0.72320   0.39383   0.26376   0.00000  Uiso   1.00
C2744  C     0.69737   0.39050   0.27331   0.00000  Uiso   1.00
H2745  H     0.73598   0.41173   0.27320   0.00000  Uiso   1.00
H2746  H     0.58675   0.30577   0.27406   0.00000  Uiso   1.00
H2747  H     0.69508   0.27507   0.22793   0.00000  Uiso   1.00
H2748  H     0.63832   0.31893   0.41833   0.00000  Uiso   1.00
C2749  C     0.68106   0.40619   0.29455   0.00000  Uiso   1.00
N2750  N     0.65641   0.26711   0.30987   0.00000  Uiso   1.00
H2751  H     0.65637   0.28199   0.43443   0.00000  Uiso   1.00
C2752  C     0.70248   0.31281   0.41657   0.00000  Uiso   1.00
C2753  C     0.81879   0.38321   0.23154   0.00000  Uiso   1.00
C2754  C     0.64788   0.33749   0.28848   0.00000  Uiso   1.00
C2755  C     0.78496   0.42511   0.31886   0.00000  Uiso   1.00
C2756  C     0.79133   0.26890   0.43587   0.00000  Uiso   1.00
C2757  C     0.82307   0.33707   0.30300   0.00000  Uiso   1.00
C2758  C     0.60820   0.36049   0.38440   0.00000  Uiso   1.00
C2759  C     0.65562   0.33177   0.42425   0.00000  Uiso   1.00
H2760  H     0.86934   0.41523   0.36418   0.00000  Uiso   1.00
C2761  C     0.64572   0.35548   0.44290   0.00000  Uiso   1.00
C2762  C     0.57253   0.38336   0.24836   0.00000  Uiso   1.00
C2763  C     0.81320   0.25361   0.36358   0.00000  Uiso   1.00
C2764  C     0.57497   0.24760   0.39684   0.00000  Uiso   1.00
C2765  C     0.86933   0.30598   0.30444   0.00000  Uiso   1.00
H2766  H     0.82471   0.31319   0.37617   0.00000  Uiso   1.00
N2767  N     0.58755   0.46981   0.43094   0.00000  Uiso   1.00
H2768  H     0.75370   0.27128   0.35008   0.00000  Uiso   1.00
C2769  C     0.82568   0.42202   0.43726   0.00000  Uiso   1.00
H2770  H     0.79153   0.22708   0.45524   0.00000  Uiso   1.00
C2771  C     0.59794   0.40647   0.40829   0.00000  Uiso   1.00
C2772  C     0.69173   0.22438   0.25031   0.00000  Uiso   1.00
C2773  C     0.85017   0.37666   0.29656   0.00000  Uiso   1.00
C2774  C     0.81372   0.26996   0.41383   0.00000  Uiso   1.00
O2775  O     0.56072   0.47186   0.31174   0.00000  Uiso   1.00
H2776  H     0.62102   0.31522   0.33071   0.00000  Uiso   1.00
H2777  H     0.64221   0.23010   0.26933   0.00000  Uiso   1.00
O2778  O     0.81647   0.46767   0.47106   0.00000  Uiso   1.00
H2779  H     0.64152   0.39510   0.31193   0.00000  Uiso   1.00
O2780  O     0.87400   0.33322   0.29959   0.00000  Uiso   1.00
C2781  C     0.60805   0.33000   0.32045   0.00000  Uiso   1.00
O2782  O     0.76238   0.38061   0.23856   0.00000  Uiso   1.00
C2783  C     0.87542   0.43501   0.35358   0.00000  Uiso   1.00
H2784  H     0.60096   0.41881   0.42735   0.00000  Uiso   1.00
H2785  H     0.78978   0.31916   0.38193   0.00000  Uiso   1.00
C2786  C     0.77291   0.34302   0.30807   0.00000  Uiso   1.00
H2787  H     0.74063   0.44807   0.43398   0.00000  Uiso   1.00
C2788  C     0.65459   0.36678   0.27926   0.00000  Uiso   1.00
C2789  C     0.80286   0.30320   0.37410   0.00000  Uiso   1.00
C2790  C     0.59398   0.39648   0.23430   0.00000  Uiso   1.00
H2791  H     0.86144   0.45246   0.35755   0.00000  Uiso   1.00
C2792  C     0.67283   0.23673   0.40193   0.00000  Uiso   1.00
C2793  C     0.57857   0.26132   0.37185   0.00000  Uiso   1.00
O2794  O     0.81890   0.30846   0.30474   0.00000  Uiso   1.00
O2795  O     0.81261   0.36902   0.45317   0.00000  Uiso   1.00
C2796  C     0.77177   0.47008   0.33750   0.00000  Uiso   1.00
H2797  H     0.56018   0.35456   0.28095   0.00000  Uiso   1.00
C2798  C     0.80148   0.32200   0.44343   0.00000  Uiso   1.00
C2799  C     0.84314   0.29318   0.30462   0.00000  Uiso   1.00
C2800  C     0.65981   0.38576   0.30492   0.00000  Uiso   1.00
C2801  C     0.77069   0.26739   0.39041   0.00000  Uiso   1.00
C2802  C     0.67548   0.24798   0.37562   0.00000  Uiso   1.00
N2803  N     0.75082   0.33534   0.31019   0.00000  Uiso   1.00
C2804  C     0.81168   0.41923   0.46136   0.00000  Uiso   1.00
H2805  H     0.82113   0.24704   0.46243   0.00000  Uiso   1.00
H2806  H     0.68574   0.44712   0.27767   0.00000  Uiso   1.00
H2807  H     0.80961   0.23221   0.37111   0.00000  Uiso   1.00
H2808  H     0.58643   0.32180   0.32210   0.00000  Uiso   1.00
C2809  C     0.64038   0.37949   0.42370   0.00000  Uiso   1.00
C2810  C     0.80165   0.34448   0.46009   0.00000  Uiso   1.00
C2811  C     0.65417   0.26100   0.33303   0.00000  Uiso   1.00
O2812  O     0.82962   0.42104   0.29784   0.00000  Uiso   1.00
H2813  H     0.83044   0.28473   0.41687   0.00000  Uiso   1.00
H2814  H     0.70645   0.39578   0.32838   0.00000  Uiso   1.00
C2815  C     0.77619   0.35711   0.22960   0.00000  Uiso   1.00
C2816  C     0.69914   0.41579   0.31951   0.00000  Uiso   1.00
C2817  C     0.82660   0.39252   0.30013   0.00000  Uiso   1.00
H2818  H     0.65606   0.38015   0.40629   0.00000  Uiso   1.00
N2819  N     0.83043   0.40393   0.23561   0.00000  Uiso   1.00
C2820  C     0.66978   0.43176   0.28072   0.00000  Uiso   1.00
C2821  C     0.80063   0.27444   0.38553   0.00000  Uiso   1.00
H2822  H     0.60970   0.35069   0.33062   0.00000  Uiso   1.00
H2823  H     0.65945   0.33134   0.30759   0.00000  Uiso   1.00
H2824  H     0.71225   0.22974   0.24092   0.00000  Uiso   1.00
C2825  C     0.62462   0.25113   0.37127   0.00000  Uiso   1.00
C2826  C     0.61059   0.37717   0.41114   0.00000  Uiso   1.00
C2827  C     0.76822   0.44188   0.33454   0.00000  Uiso   1.00
H2828  H     0.68880   0.27566   0.45414   0.00000  Uiso   1.00
H2829  H     0.63525   0.40253   0.23137   0.00000  Uiso   1.00
H2830  H     0.88346   0.43070   0.41515   0.00000  Uiso   1.00
C2831  C     0.79857   0.24832   0.45963   0.00000  Uiso   1.00
C2832  C     0.61625   0.35062   0.45316   0.00000  Uiso   1.00
C2833  C     0.79189   0.29723   0.45089   0.00000  Uiso   1.00
H2834  H     0.61039   0.41838   0.39365   0.00000  Uiso   1.00
C2835  C     0.84957   0.34850   0.29937   0.00000  Uiso   1.00
H2836  H     0.66721   0.37209   0.32251   0.00000  Uiso   1.00
C2837  C     0.64577   0.23081   0.41229   0.00000  Uiso   1.00
H2838  H     0.66505   0.33963   0.40624   0.00000  Uiso   1.00
C2839  C     0.81042   0.43716   0.30934   0.00000  Uiso   1.00
H2840  H     0.73767   0.24154   0.44865   0.00000  Uiso   1.00
C2841  C     0.64164   0.22245   0.43961   0.00000  Uiso   1.00
C2842  C     0.66866   0.35859   0.46411   0.00000  Uiso   1.00
C2843  C     0.62679   0.37323   0.26482   0.00000  Uiso   1.00
H2844  H     0.80733   0.32322   0.42160   0.00000  Uiso   1.00
H2845  H     0.61453   0.33883   0.38788   0.00000  Uiso   1.00
C2846  C     0.61815   0.33367   0.29099   0.00000  Uiso   1.00
H2847  H     0.69031   0.23213   0.27102   0.00000  Uiso   1.00
H2848  H     0.82371   0.24994   0.41512   0.00000  Uiso   1.00
H2849  H     0.77579   0.44666   0.42463   0.00000  Uiso   1.00
C2850  C     0.84158   0.26458   0.30173   0.00000  Uiso   1.00
O2851  O     0.69514   0.23572   0.42118   0.00000  Uiso   1.00
H2852  H     0.68042   0.33086   0.23889   0.00000  Uiso   1.00
H2853  H     0.68590   0.42572   0.33678   0.00000  Uiso   1.00
C2854  C     0.60496   0.35800   0.27536   0.00000  Uiso   1.00
H2855  H     0.61487   0.28937   0.29073   0.00000  Uiso   1.00
C2856  C     0.71987   0.24659   0.41032   0.00000  Uiso   1.00
O2857  O     0.60212   0.25933   0.35612   0.00000  Uiso   1.00
H2858  H     0.80024   0.23376   0.27831   0.00000  Uiso   1.00
H2859  H     0.75050   0.43167   0.40182   0.00000  Uiso   1.00
C2860  C     0.59679   0.36106   0.43371   0.00000  Uiso   1.00
C2861  C     0.74875   0.26430   0.37207   0.00000  Uiso   1.00
C2862  C     0.61012   0.30632   0.27767   0.00000  Uiso   1.00
C2863  C     0.68798   0.33762   0.46101   0.00000  Uiso   1.00
H2864  H     0.70169   0.45679   0.23678   0.00000  Uiso   1.00
O2865  O     0.59626   0.23326   0.40882   0.00000  Uiso   1.00
C2866  C     0.80512   0.39235   0.46906   0.00000  Uiso   1.00
H2867  H     0.66054   0.29103   0.46959   0.00000  Uiso   1.00
C2868  C     0.56278   0.34575   0.46594   0.00000  Uiso   1.00
H2869  H     0.87340   0.42951   0.33090   0.00000  Uiso   1.00
C2870  C     0.55647   0.27766   0.36256   0.00000  Uiso   1.00
H2871  H     0.72752   0.47004   0.25957   0.00000  Uiso   1.00
C2872  C     0.80457   0.35811   0.22671   0.00000  Uiso   1.00
N2873  N     0.55769   0.26405   0.29478   0.00000  Uiso   1.00
H2874  H     0.66170   0.28786   0.23360   0.00000  Uiso   1.00
H2875  H     0.55935   0.28922   0.34350   0.00000  Uiso   1.00
C2876  C     0.88732   0.25895   0.31268   0.00000  Uiso   1.00
H2877  H     0.85361   0.22797   0.26217   0.00000  Uiso   1.00
H2878  H     0.73338   0.46473   0.22227   0.00000  Uiso   1.00
C2879  C     0.74574   0.32458   0.57101   0.00000  Uiso   1.00
N2880  N     0.75813   0.30336   0.56931   0.00000  Uiso   1.00
C2881  C     0.72283   0.36186   0.59806   0.00000  Uiso   1.00
C2882  C     0.71051   0.35325   0.50188   0.00000  Uiso   1.00
O2883  O     0.72882   0.34797   0.52234   0.00000  Uiso   1.00
C2884  C     0.72122   0.36111   0.54733   0.00000  Uiso   1.00
C2885  C     0.73114   0.35063   0.57176   0.00000  Uiso   1.00
C2886  C     0.69289   0.37697   0.50194   0.00000  Uiso   1.00
C2887  C     0.86559   0.22616   0.68498   0.00000  Uiso   1.00
C2888  C     0.64256   0.26073   0.67364   0.00000  Uiso   1.00
C2889  C     0.74636   0.31557   0.71804   0.00000  Uiso   1.00
C2890  C     0.78766   0.29193   0.47898   0.00000  Uiso   1.00
C2891  C     0.70481   0.38477   0.54752   0.00000  Uiso   1.00
C2892  C     0.56000   0.42102   0.58591   0.00000  Uiso   1.00
H2893  H     0.68764   0.41379   0.67349   0.00000  Uiso   1.00
N2894  N     0.76363   0.40191   0.55924   0.00000  Uiso   1.00
O2895  O     0.69359   0.39526   0.52330   0.00000  Uiso   1.00
O2896  O     0.62707   0.43247   0.49333   0.00000  Uiso   1.00
H2897  H     0.79379   0.40350   0.66406   0.00000  Uiso   1.00
H2898  H     0.62343   0.30339   0.64862   0.00000  Uiso   1.00
C2899  C     0.85271   0.27230   0.55925   0.00000  Uiso   1.00
O2900  O     0.83072   0.29333   0.67257   0.00000  Uiso   1.00
O2901  O     0.72907   0.24874   0.69213   0.00000  Uiso   1.00
C2902  C     0.72733   0.36230   0.64476   0.00000  Uiso   1.00
H2903  H     0.82061   0.27026   0.60327   0.00000  Uiso   1.00
C2904  C     0.57066   0.42091   0.55681   0.00000  Uiso   1.00
C2905  C     0.70695   0.38583   0.59769   0.00000  Uiso   1.00
H2906  H     0.64398   0.38660   0.58463   0.00000  Uiso   1.00
C2907  C     0.70090   0.39789   0.57220   0.00000  Uiso   1.00
C2908  C     0.64925   0.25002   0.52366   0.00000  Uiso   1.00
O2909  O     0.69771   0.39745   0.62133   0.00000  Uiso   1.00
C2910  C     0.68887   0.42497   0.57258   0.00000  Uiso   1.00
N2911  N     0.67930   0.44698   0.57180   0.00000  Uiso   1.00
H2912  H     0.83927   0.32020   0.57608   0.00000  Uiso   1.00
C2913  C     0.82111   0.23582   0.66594   0.00000  Uiso   1.00
C2914  C     0.58155   0.33547   0.48549   0.00000  Uiso   1.00
H2915  H     0.66627   0.29086   0.62326   0.00000  Uiso   1.00
H2916  H     0.63557   0.40021   0.53709   0.00000  Uiso   1.00
H2917  H     0.57578   0.39493   0.62310   0.00000  Uiso   1.00
H2918  H     0.84253   0.28865   0.62487   0.00000  Uiso   1.00
H2919  H     0.87630   0.32328   0.57181   0.00000  Uiso   1.00
C2920  C     0.61439   0.40893   0.53572   0.00000  Uiso   1.00
O2921  O     0.73368   0.34861   0.62035   0.00000  Uiso   1.00
H2922  H     0.56665   0.40105   0.69559   0.00000  Uiso   1.00
C2923  C     0.67845   0.28977   0.53369   0.00000  Uiso   1.00
C2924  C     0.83832   0.42600   0.69732   0.00000  Uiso   1.00
H2925  H     0.71209   0.29900   0.69382   0.00000  Uiso   1.00
C2926  C     0.86254   0.40382   0.65415   0.00000  Uiso   1.00
C2927  C     0.72958   0.35847   0.69216   0.00000  Uiso   1.00
H2928  H     0.69307   0.28199   0.51784   0.00000  Uiso   1.00
H2929  H     0.57327   0.32253   0.67272   0.00000  Uiso   1.00
H2930  H     0.59129   0.42791   0.61534   0.00000  Uiso   1.00
H2931  H     0.77595   0.38252   0.63958   0.00000  Uiso   1.00
H2932  H     0.82885   0.26496   0.50295   0.00000  Uiso   1.00
C2933  C     0.83188   0.36449   0.64887   0.00000  Uiso   1.00
O2934  O     0.57155   0.32675   0.51015   0.00000  Uiso   1.00
C2935  C     0.58105   0.41117   0.60673   0.00000  Uiso   1.00
C2936  C     0.70993   0.38606   0.64594   0.00000  Uiso   1.00
C2937  C     0.58226   0.43867   0.51294   0.00000  Uiso   1.00
C2938  C     0.81736   0.37753   0.60135   0.00000  Uiso   1.00
H2939  H     0.85210   0.40982   0.61227   0.00000  Uiso   1.00
H2940  H     0.59698   0.27689   0.65153   0.00000  Uiso   1.00
C2941  C     0.84270   0.27230   0.60882   0.00000  Uiso   1.00
C2942  C     0.82237   0.33853   0.65349   0.00000  Uiso   1.00
H2943  H     0.83683   0.36970   0.59327   0.00000  Uiso   1.00
C2944  C     0.86168   0.28355   0.58640   0.00000  Uiso   1.00
H2945  H     0.62389   0.25495   0.68394   0.00000  Uiso   1.00
C2946  C     0.65012   0.27262   0.57342   0.00000  Uiso   1.00
C2947  C     0.88552   0.26913   0.51899   0.00000  Uiso   1.00
C2948  C     0.75732   0.25412   0.49660   0.00000  Uiso   1.00
H2949  H     0.71100   0.23609   0.52222   0.00000  Uiso   1.00
H2950  H     0.87438   0.45756   0.61888   0.00000  Uiso   1.00
H2951  H     0.86350   0.32459   0.60477   0.00000  Uiso   1.00
H2952  H     0.84709   0.28890   0.54475   0.00000  Uiso   1.00
C2953  C     0.60794   0.42577   0.51338   0.00000  Uiso   1.00
H2954  H     0.65956   0.29183   0.57998   0.00000  Uiso   1.00
H2955  H     0.80225   0.27077   0.52791   0.00000  Uiso   1.00
H2956  H     0.59802   0.43077   0.71729   0.00000  Uiso   1.00
N2957  N     0.57027   0.30584   0.57859   0.00000  Uiso   1.00
C2958  C     0.85572   0.37427   0.66052   0.00000  Uiso   1.00
C2959  C     0.70743   0.33382   0.48079   0.00000  Uiso   1.00
H2960  H     0.61973   0.38554   0.68955   0.00000  Uiso   1.00
N2961  N     0.85805   0.42574   0.51628   0.00000  Uiso   1.00
H2962  H     0.63632   0.26538   0.51426   0.00000  Uiso   1.00
H2963  H     0.59978   0.38095   0.65920   0.00000  Uiso   1.00
C2964  C     0.80650   0.44131   0.47932   0.00000  Uiso   1.00
C2965  C     0.70246   0.39565   0.67125   0.00000  Uiso   1.00
H2966  H     0.74618   0.32863   0.66430   0.00000  Uiso   1.00
C2967  C     0.79261   0.43707   0.50390   0.00000  Uiso   1.00
H2968  H     0.83474   0.26071   0.56092   0.00000  Uiso   1.00
H2969  H     0.77831   0.31283   0.51845   0.00000  Uiso   1.00
H2970  H     0.65597   0.36614   0.70415   0.00000  Uiso   1.00
C2971  C     0.74313   0.26848   0.70635   0.00000  Uiso   1.00
C2972  C     0.77347   0.40614   0.53807   0.00000  Uiso   1.00
H2973  H     0.75182   0.23183   0.49247   0.00000  Uiso   1.00
H2974  H     0.83243   0.43074   0.63499   0.00000  Uiso   1.00
O2975  O     0.78905   0.36186   0.50510   0.00000  Uiso   1.00
C2976  C     0.86572   0.32918   0.67937   0.00000  Uiso   1.00
N2977  N     0.80108   0.22761   0.65603   0.00000  Uiso   1.00
C2978  C     0.59618   0.40885   0.55809   0.00000  Uiso   1.00
C2979  C     0.87833   0.28277   0.68678   0.00000  Uiso   1.00
C2980  C     0.84568   0.24542   0.67732   0.00000  Uiso   1.00
C2981  C     0.78469   0.31413   0.49630   0.00000  Uiso   1.00
C2982  C     0.79092   0.39836   0.64160   0.00000  Uiso   1.00
C2983  C     0.83923   0.32055   0.66870   0.00000  Uiso   1.00
C2984  C     0.79213   0.38867   0.49435   0.00000  Uiso   1.00
C2985  C     0.84110   0.41018   0.63212   0.00000  Uiso   1.00
C2986  C     0.61462   0.28403   0.63949   0.00000  Uiso   1.00
H2987  H     0.85050   0.25255   0.61726   0.00000  Uiso   1.00
C2988  C     0.60714   0.36999   0.67825   0.00000  Uiso   1.00
C2989  C     0.63978   0.22999   0.60158   0.00000  Uiso   1.00
H2990  H     0.80305   0.33009   0.64680   0.00000  Uiso   1.00
C2991  C     0.87254   0.35632   0.67514   0.00000  Uiso   1.00
H2992  H     0.65735   0.24443   0.67823   0.00000  Uiso   1.00
C2993  C     0.88065   0.46453   0.69593   0.00000  Uiso   1.00
C2994  C     0.79218   0.33996   0.48824   0.00000  Uiso   1.00
C2995  C     0.66651   0.26499   0.54833   0.00000  Uiso   1.00
C2996  C     0.87594   0.25578   0.54688   0.00000  Uiso   1.00
H2997  H     0.80992   0.39351   0.58774   0.00000  Uiso   1.00
C2998  C     0.62983   0.39540   0.59953   0.00000  Uiso   1.00
H2999  H     0.66179   0.30236   0.52428   0.00000  Uiso   1.00
O3000  O     0.78567   0.45937   0.52128   0.00000  Uiso   1.00
O3001  O     0.78018   0.23712   0.72098   0.00000  Uiso   1.00
H3002  H     0.62897   0.38199   0.61789   0.00000  Uiso   1.00
H3003  H     0.78397   0.41631   0.63041   0.00000  Uiso   1.00
C3004  C     0.60135   0.39715   0.58655   0.00000  Uiso   1.00
C3005  C     0.63730   0.26113   0.64188   0.00000  Uiso   1.00
C3006  C     0.80755   0.25790   0.51007   0.00000  Uiso   1.00
C3007  C     0.86757   0.44681   0.51185   0.00000  Uiso   1.00
H3008  H     0.56946   0.36775   0.57407   0.00000  Uiso   1.00
H3009  H     0.57913   0.24906   0.50854   0.00000  Uiso   1.00
C3010  C     0.81884   0.38663   0.63155   0.00000  Uiso   1.00
C3011  C     0.73798   0.34691   0.71931   0.00000  Uiso   1.00
H3012  H     0.65585   0.39385   0.48862   0.00000  Uiso   1.00
O3013  O     0.88430   0.30941   0.69102   0.00000  Uiso   1.00
H3014  H     0.63472   0.23420   0.53020   0.00000  Uiso   1.00
O3015  O     0.57691   0.46087   0.49406   0.00000  Uiso   1.00
C3016  C     0.68807   0.24470   0.55839   0.00000  Uiso   1.00
C3017  C     0.78441   0.41166   0.51188   0.00000  Uiso   1.00
C3018  C     0.73746   0.34955   0.66719   0.00000  Uiso   1.00
C3019  C     0.68392   0.23822   0.58544   0.00000  Uiso   1.00
C3020  C     0.71072   0.37999   0.69447   0.00000  Uiso   1.00
C3021  C     0.67125   0.37843   0.48386   0.00000  Uiso   1.00
H3022  H     0.63684   0.41638   0.60664   0.00000  Uiso   1.00
C3023  C     0.73148   0.29495   0.70616   0.00000  Uiso   1.00
H3024  H     0.77665   0.36432   0.71254   0.00000  Uiso   1.00
H3025  H     0.80379   0.35878   0.59871   0.00000  Uiso   1.00
C3026  C     0.70978   0.23287   0.54363   0.00000  Uiso   1.00
C3027  C     0.85878   0.31428   0.58389   0.00000  Uiso   1.00
H3028  H     0.60673   0.28992   0.61792   0.00000  Uiso   1.00
H3029  H     0.69117   0.30441   0.54561   0.00000  Uiso   1.00
H3030  H     0.61056   0.30810   0.70945   0.00000  Uiso   1.00
C3031  C     0.59042   0.36588   0.58095   0.00000  Uiso   1.00
H3032  H     0.62766   0.27471   0.57189   0.00000  Uiso   1.00
C3033  C     0.56380   0.33858   0.68702   0.00000  Uiso   1.00
C3034  C     0.56208   0.43469   0.53327   0.00000  Uiso   1.00
C3035  C     0.87014   0.22556   0.53724   0.00000  Uiso   1.00
C3036  C     0.78676   0.26144   0.48609   0.00000  Uiso   1.00
H3037  H     0.80817   0.23594   0.51809   0.00000  Uiso   1.00
C3038  C     0.66364   0.26804   0.62483   0.00000  Uiso   1.00
H3039  H     0.65052   0.28030   0.68022   0.00000  Uiso   1.00
H3040  H     0.60317   0.35566   0.56511   0.00000  Uiso   1.00
H3041  H     0.62026   0.35228   0.66971   0.00000  Uiso   1.00
H3042  H     0.68111   0.26035   0.63686   0.00000  Uiso   1.00
C3043  C     0.85105   0.27381   0.67964   0.00000  Uiso   1.00
C3044  C     0.85825   0.42360   0.67771   0.00000  Uiso   1.00
H3045  H     0.58991   0.35315   0.59982   0.00000  Uiso   1.00
H3046  H     0.66404   0.24456   0.50700   0.00000  Uiso   1.00
C3047  C     0.65928   0.25298   0.59634   0.00000  Uiso   1.00
H3048  H     0.75910   0.25689   0.51868   0.00000  Uiso   1.00
C3049  C     0.56733   0.38386   0.71090   0.00000  Uiso   1.00
H3050  H     0.74084   0.26572   0.48775   0.00000  Uiso   1.00
C3051  C     0.58419   0.36082   0.69937   0.00000  Uiso   1.00
C3052  C     0.62566   0.23544   0.62657   0.00000  Uiso   1.00
H3053  H     0.82306   0.41051   0.69813   0.00000  Uiso   1.00
H3054  H     0.62447   0.33394   0.49385   0.00000  Uiso   1.00
H3055  H     0.72021   0.31525   0.47932   0.00000  Uiso   1.00
C3056  C     0.60924   0.33918   0.47848   0.00000  Uiso   1.00
N3057  N     0.58507   0.45664   0.66770   0.00000  Uiso   1.00
C3058  C     0.83684   0.44836   0.71501   0.00000  Uiso   1.00
H3059  H     0.88658   0.31236   0.53096   0.00000  Uiso   1.00
C3060  C     0.62454   0.45899   0.48252   0.00000  Uiso   1.00
H3061  H     0.88661   0.38639   0.56261   0.00000  Uiso   1.00
H3062  H     0.84797   0.22358   0.53375   0.00000  Uiso   1.00
C3063  C     0.76709   0.26329   0.72067   0.00000  Uiso   1.00
C3064  C     0.85908   0.46813   0.71386   0.00000  Uiso   1.00
C3065  C     0.64888   0.47059   0.47304   0.00000  Uiso   1.00
C3066  C     0.56027   0.23577   0.50509   0.00000  Uiso   1.00
C3067  C     0.87955   0.44322   0.67604   0.00000  Uiso   1.00
C3068  C     0.66669   0.37774   0.72143   0.00000  Uiso   1.00
H3069  H     0.57260   0.46842   0.71397   0.00000  Uiso   1.00
H3070  H     0.81735   0.33557   0.71919   0.00000  Uiso   1.00
C3071  C     0.67434   0.45546   0.47287   0.00000  Uiso   1.00
C3072  C     0.73855   0.22233   0.69771   0.00000  Uiso   1.00
H3073  H     0.65853   0.39899   0.71995   0.00000  Uiso   1.00
N3074  N     0.69453   0.44272   0.47297   0.00000  Uiso   1.00
C3075  C     0.56040   0.27867   0.92746   0.00000  Uiso   1.00
H3076  H     0.66879   0.38514   0.91739   0.00000  Uiso   1.00
C3077  C     0.83337   0.22586   0.77368   0.00000  Uiso   1.00
C3078  C     0.59552   0.42142   0.73735   0.00000  Uiso   1.00
C3079  C     0.86846   0.32846   0.96284   0.00000  Uiso   1.00
H3080  H     0.84263   0.23978   0.86953   0.00000  Uiso   1.00
C3081  C     0.76665   0.45001   0.84709   0.00000  Uiso   1.00
C3082  C     0.77386   0.24255   0.78784   0.00000  Uiso   1.00
H3083  H     0.71744   0.40809   0.93158   0.00000  Uiso   1.00
O3084  O     0.63816   0.28952   0.75039   0.00000  Uiso   1.00
C3085  C     0.70370   0.40739   0.73701   0.00000  Uiso   1.00
C3086  C     0.59769   0.32783   0.85435   0.00000  Uiso   1.00
C3087  C     0.69176   0.35511   0.95736   0.00000  Uiso   1.00
H3088  H     0.58886   0.34724   0.86369   0.00000  Uiso   1.00
H3089  H     0.68477   0.43912   0.83214   0.00000  Uiso   1.00
C3090  C     0.84257   0.24589   0.81986   0.00000  Uiso   1.00
C3091  C     0.56242   0.28754   0.90079   0.00000  Uiso   1.00
N3092  N     0.87118   0.37964   0.73316   0.00000  Uiso   1.00
C3093  C     0.77527   0.28312   0.82753   0.00000  Uiso   1.00
C3094  C     0.79472   0.44485   0.83219   0.00000  Uiso   1.00
H3095  H     0.84399   0.24418   0.76698   0.00000  Uiso   1.00
H3096  H     0.61863   0.32600   0.86099   0.00000  Uiso   1.00
O3097  O     0.72910   0.29488   0.82271   0.00000  Uiso   1.00
H3098  H     0.76167   0.37900   0.74269   0.00000  Uiso   1.00
H3099  H     0.63926   0.36762   0.93130   0.00000  Uiso   1.00
C3100  C     0.81481   0.43109   0.85329   0.00000  Uiso   1.00
C3101  C     0.82325   0.22834   0.80281   0.00000  Uiso   1.00
C3102  C     0.59775   0.36678   0.74629   0.00000  Uiso   1.00
H3103  H     0.80130   0.28074   0.74435   0.00000  Uiso   1.00
C3104  C     0.79754   0.26461   0.82452   0.00000  Uiso   1.00
H3105  H     0.77336   0.22477   0.77335   0.00000  Uiso   1.00
O3106  O     0.80375   0.24100   0.96690   0.00000  Uiso   1.00
C3107  C     0.75069   0.27826   0.81497   0.00000  Uiso   1.00
H3108  H     0.83170   0.42054   0.84258   0.00000  Uiso   1.00
H3109  H     0.72526   0.41248   0.74087   0.00000  Uiso   1.00
O3110  O     0.63506   0.26778   0.94534   0.00000  Uiso   1.00
C3111  C     0.70565   0.29115   0.80584   0.00000  Uiso   1.00
C3112  C     0.55959   0.45826   0.72989   0.00000  Uiso   1.00
N3113  N     0.74619   0.45288   0.75356   0.00000  Uiso   1.00
C3114  C     0.68350   0.30927   0.80922   0.00000  Uiso   1.00
H3115  H     0.69582   0.33888   0.73444   0.00000  Uiso   1.00
C3116  C     0.66237   0.30931   0.79095   0.00000  Uiso   1.00
H3117  H     0.69021   0.40912   0.75597   0.00000  Uiso   1.00
C3118  C     0.84748   0.37044   0.94598   0.00000  Uiso   1.00
C3119  C     0.83789   0.30226   0.86592   0.00000  Uiso   1.00
H3120  H     0.59997   0.33284   0.83194   0.00000  Uiso   1.00
H3121  H     0.61683   0.42174   0.74665   0.00000  Uiso   1.00
C3122  C     0.78065   0.28479   0.73399   0.00000  Uiso   1.00
C3123  C     0.67812   0.24810   0.74798   0.00000  Uiso   1.00
C3124  C     0.58090   0.39311   0.73788   0.00000  Uiso   1.00
H3125  H     0.85759   0.25704   0.80738   0.00000  Uiso   1.00
H3126  H     0.71407   0.35846   0.75968   0.00000  Uiso   1.00
H3127  H     0.69935   0.35792   0.93631   0.00000  Uiso   1.00
H3128  H     0.86765   0.26481   0.89708   0.00000  Uiso   1.00
N3129  N     0.67766   0.23218   0.73119   0.00000  Uiso   1.00
C3130  C     0.72252   0.44452   0.95974   0.00000  Uiso   1.00
C3131  C     0.80204   0.28509   0.90153   0.00000  Uiso   1.00
C3132  C     0.83495   0.29467   0.83865   0.00000  Uiso   1.00
H3133  H     0.76887   0.34608   0.95618   0.00000  Uiso   1.00
H3134  H     0.69867   0.42404   0.72230   0.00000  Uiso   1.00
H3135  H     0.64293   0.40333   0.93654   0.00000  Uiso   1.00
C3136  C     0.76360   0.46860   0.74999   0.00000  Uiso   1.00
C3137  C     0.84698   0.32874   0.87139   0.00000  Uiso   1.00
H3138  H     0.80398   0.41577   0.86471   0.00000  Uiso   1.00
H3139  H     0.65812   0.37077   0.74165   0.00000  Uiso   1.00
H3140  H     0.82066   0.35891   0.74611   0.00000  Uiso   1.00
C3141  C     0.81220   0.33805   0.74066   0.00000  Uiso   1.00
O3142  O     0.64349   0.33151   0.79345   0.00000  Uiso   1.00
H3143  H     0.77253   0.43080   0.79579   0.00000  Uiso   1.00
H3144  H     0.77173   0.39752   0.92791   0.00000  Uiso   1.00
C3145  C     0.68455   0.32864   0.83139   0.00000  Uiso   1.00
C3146  C     0.67286   0.37952   0.96172   0.00000  Uiso   1.00
O3147  O     0.88776   0.30712   0.96133   0.00000  Uiso   1.00
C3148  C     0.71072   0.41897   0.95055   0.00000  Uiso   1.00
C3149  C     0.58461   0.29880   0.85772   0.00000  Uiso   1.00
C3150  C     0.82866   0.28013   0.88650   0.00000  Uiso   1.00
C3151  C     0.62667   0.33433   0.77195   0.00000  Uiso   1.00
C3152  C     0.59970   0.27926   0.83763   0.00000  Uiso   1.00
C3153  C     0.84984   0.33847   0.82112   0.00000  Uiso   1.00
O3154  O     0.85769   0.35416   0.79796   0.00000  Uiso   1.00
C3155  C     0.57524   0.44194   0.75186   0.00000  Uiso   1.00
C3156  C     0.76600   0.35888   0.73192   0.00000  Uiso   1.00
H3157  H     0.72608   0.45734   0.80758   0.00000  Uiso   1.00
C3158  C     0.55711   0.39719   0.75858   0.00000  Uiso   1.00
H3159  H     0.80645   0.24283   0.86905   0.00000  Uiso   1.00
N3160  N     0.68599   0.34442   0.84961   0.00000  Uiso   1.00
C3161  C     0.88133   0.39352   0.78251   0.00000  Uiso   1.00
C3162  C     0.82533   0.26530   0.83878   0.00000  Uiso   1.00
H3163  H     0.83506   0.30369   0.79522   0.00000  Uiso   1.00
C3164  C     0.85589   0.34576   0.84934   0.00000  Uiso   1.00
C3165  C     0.71141   0.35543   0.73616   0.00000  Uiso   1.00
H3166  H     0.73401   0.25402   0.93905   0.00000  Uiso   1.00
H3167  H     0.80618   0.39538   0.91643   0.00000  Uiso   1.00
H3168  H     0.62222   0.27927   0.84100   0.00000  Uiso   1.00
C3169  C     0.77314   0.33695   0.77831   0.00000  Uiso   1.00
H3170  H     0.59148   0.25750   0.84001   0.00000  Uiso   1.00
C3171  C     0.68916   0.40720   0.96476   0.00000  Uiso   1.00
C3172  C     0.70481   0.27109   0.78429   0.00000  Uiso   1.00
H3173  H     0.77180   0.45251   0.86962   0.00000  Uiso   1.00
C3174  C     0.77044   0.31084   0.73279   0.00000  Uiso   1.00
C3175  C     0.65485   0.38338   0.93548   0.00000  Uiso   1.00
C3176  C     0.87578   0.38467   0.75581   0.00000  Uiso   1.00
O3177  O     0.86861   0.37075   0.85430   0.00000  Uiso   1.00
C3178  C     0.60981   0.27493   0.93004   0.00000  Uiso   1.00
C3179  C     0.78117   0.33631   0.74707   0.00000  Uiso   1.00
H3180  H     0.78368   0.28248   0.88765   0.00000  Uiso   1.00
H3181  H     0.67661   0.33858   0.95846   0.00000  Uiso   1.00
C3182  C     0.79057   0.38534   0.92991   0.00000  Uiso   1.00
C3183  C     0.68075   0.26935   0.76789   0.00000  Uiso   1.00
H3184  H     0.80320   0.29273   0.95608   0.00000  Uiso   1.00
H3185  H     0.61310   0.37630   0.78482   0.00000  Uiso   1.00
C3186  C     0.79861   0.46713   0.93096   0.00000  Uiso   1.00
H3187  H     0.85703   0.23101   0.83058   0.00000  Uiso   1.00
H3188  H     0.84964   0.38907   0.93398   0.00000  Uiso   1.00
O3189  O     0.74583   0.45457   0.94582   0.00000  Uiso   1.00
H3190  H     0.77857   0.35686   0.78626   0.00000  Uiso   1.00
C3191  C     0.87223   0.37810   0.80433   0.00000  Uiso   1.00
H3192  H     0.84494   0.26049   0.92462   0.00000  Uiso   1.00
H3193  H     0.69838   0.25296   0.93213   0.00000  Uiso   1.00
H3194  H     0.59845   0.28492   0.81682   0.00000  Uiso   1.00
H3195  H     0.82200   0.44671   0.86783   0.00000  Uiso   1.00
H3196  H     0.78353   0.32078   0.79081   0.00000  Uiso   1.00
C3197  C     0.83922   0.31218   0.81654   0.00000  Uiso   1.00
H3198  H     0.78105   0.40383   0.81730   0.00000  Uiso   1.00
C3199  C     0.69237   0.45104   0.84934   0.00000  Uiso   1.00
C3200  C     0.79666   0.24486   0.80438   0.00000  Uiso   1.00
C3201  C     0.58975   0.45841   0.77420   0.00000  Uiso   1.00
C3202  C     0.61343   0.35988   0.76900   0.00000  Uiso   1.00
C3203  C     0.85125   0.27448   0.90857   0.00000  Uiso   1.00
H3204  H     0.78271   0.36590   0.92039   0.00000  Uiso   1.00
C3205  C     0.69848   0.37977   0.72315   0.00000  Uiso   1.00
H3206  H     0.85122   0.33211   0.89392   0.00000  Uiso   1.00
H3207  H     0.80698   0.41982   0.79817   0.00000  Uiso   1.00
H3208  H     0.77428   0.30099   0.84149   0.00000  Uiso   1.00
H3209  H     0.85691   0.29458   0.91644   0.00000  Uiso   1.00
C3210  C     0.66077   0.28948   0.76955   0.00000  Uiso   1.00
C3211  C     0.61245   0.28208   0.90262   0.00000  Uiso   1.00
H3212  H     0.63416   0.28312   0.89526   0.00000  Uiso   1.00
C3213  C     0.82550   0.25504   0.86742   0.00000  Uiso   1.00
C3214  C     0.62505   0.31465   0.74991   0.00000  Uiso   1.00
H3215  H     0.80285   0.30516   0.91262   0.00000  Uiso   1.00
H3216  H     0.75111   0.33460   0.78143   0.00000  Uiso   1.00
C3217  C     0.58832   0.28793   0.88744   0.00000  Uiso   1.00
H3218  H     0.82585   0.32242   0.74940   0.00000  Uiso   1.00
C3219  C     0.74959   0.25747   0.79380   0.00000  Uiso   1.00
C3220  C     0.87954   0.38604   0.83160   0.00000  Uiso   1.00
H3221  H     0.79617   0.26819   0.91569   0.00000  Uiso   1.00
H3222  H     0.75327   0.43169   0.84600   0.00000  Uiso   1.00
C3223  C     0.79695   0.38076   0.96054   0.00000  Uiso   1.00
H3224  H     0.72368   0.24439   0.90614   0.00000  Uiso   1.00
H3225  H     0.67481   0.45371   0.86351   0.00000  Uiso   1.00
C3226  C     0.86929   0.35089   0.94377   0.00000  Uiso   1.00
O3227  O     0.72598   0.25297   0.77775   0.00000  Uiso   1.00
C3228  C     0.82390   0.36541   0.96010   0.00000  Uiso   1.00
H3229  H     0.70717   0.43732   0.86000   0.00000  Uiso   1.00
N3230  N     0.80837   0.45476   0.91305   0.00000  Uiso   1.00
C3231  C     0.78842   0.42415   0.80969   0.00000  Uiso   1.00
H3232  H     0.60238   0.44377   0.78748   0.00000  Uiso   1.00
O3233  O     0.81337   0.45304   0.72984   0.00000  Uiso   1.00
C3234  C     0.71747   0.24292   0.92709   0.00000  Uiso   1.00
C3235  C     0.58380   0.27220   0.94232   0.00000  Uiso   1.00
H3236  H     0.55687   0.33922   0.89884   0.00000  Uiso   1.00
C3237  C     0.61090   0.32331   0.72679   0.00000  Uiso   1.00
O3238  O     0.57934   0.26278   0.96940   0.00000  Uiso   1.00
C3239  C     0.59714   0.34865   0.72413   0.00000  Uiso   1.00
H3240  H     0.57759   0.47046   0.78848   0.00000  Uiso   1.00
H3241  H     0.81541   0.22294   0.75839   0.00000  Uiso   1.00
H3242  H     0.81778   0.42012   0.96967   0.00000  Uiso   1.00
H3243  H     0.69603   0.32961   1.16686   0.00000  Uiso   1.00
C3244  C     0.79745   0.41549   1.15582   0.00000  Uiso   1.00
C3245  C     0.63697   0.29859   1.11703   0.00000  Uiso   1.00
C3246  C     0.57371   0.26657   1.02352   0.00000  Uiso   1.00
C3247  C     0.78037   0.27661   1.03024   0.00000  Uiso   1.00
C3248  C     0.81890   0.37295   1.14110   0.00000  Uiso   1.00
H3249  H     0.76966   0.24229   1.16952   0.00000  Uiso   1.00
C3250  C     0.76455   0.28600   1.20190   0.00000  Uiso   1.00
O3251  O     0.82447   0.45866   1.15098   0.00000  Uiso   1.00
C3252  C     0.67635   0.22653   1.15753   0.00000  Uiso   1.00
C3253  C     0.87494   0.26038   1.07106   0.00000  Uiso   1.00
H3254  H     0.80688   0.25869   1.09491   0.00000  Uiso   1.00
C3255  C     0.79834   0.38742   1.15304   0.00000  Uiso   1.00
C3256  C     0.78342   0.30425   1.02271   0.00000  Uiso   1.00
C3257  C     0.86699   0.43066   1.12859   0.00000  Uiso   1.00
H3258  H     0.78509   0.30872   1.08317   0.00000  Uiso   1.00
H3259  H     0.68156   0.45789   1.01465   0.00000  Uiso   1.00
H3260  H     0.66926   0.36108   1.00160   0.00000  Uiso   1.00
C3261  C     0.78111   0.45539   1.08732   0.00000  Uiso   1.00
H3262  H     0.59966   0.33307   1.09031   0.00000  Uiso   1.00
H3263  H     0.78821   0.34513   1.07920   0.00000  Uiso   1.00
H3264  H     0.62714   0.43479   0.98789   0.00000  Uiso   1.00
H3265  H     0.64632   0.45351   1.08092   0.00000  Uiso   1.00
C3266  C     0.60375   0.26343   0.98416   0.00000  Uiso   1.00
C3267  C     0.59798   0.41845   1.04764   0.00000  Uiso   1.00
C3268  C     0.80717   0.31065   1.21137   0.00000  Uiso   1.00
H3269  H     0.80862   0.39973   0.99950   0.00000  Uiso   1.00
C3270  C     0.82368   0.25526   1.08028   0.00000  Uiso   1.00
O3271  O     0.81728   0.34465   1.14162   0.00000  Uiso   1.00
C3272  C     0.77857   0.35859   0.97386   0.00000  Uiso   1.00
C3273  C     0.65570   0.40401   1.00137   0.00000  Uiso   1.00
C3274  C     0.57908   0.29570   1.20036   0.00000  Uiso   1.00
H3275  H     0.57890   0.42212   1.03746   0.00000  Uiso   1.00
C3276  C     0.85163   0.29034   1.10163   0.00000  Uiso   1.00
C3277  C     0.79524   0.26107   0.98723   0.00000  Uiso   1.00
N3278  N     0.75615   0.36069   1.16957   0.00000  Uiso   1.00
C3279  C     0.64880   0.27022   1.01934   0.00000  Uiso   1.00
H3280  H     0.78325   0.41948   0.98174   0.00000  Uiso   1.00
C3281  C     0.59580   0.32606   1.13438   0.00000  Uiso   1.00
O3282  O     0.67095   0.27660   1.03916   0.00000  Uiso   1.00
C3283  C     0.66095   0.28405   1.06465   0.00000  Uiso   1.00
H3284  H     0.82261   0.23470   1.07223   0.00000  Uiso   1.00
H3285  H     0.69553   0.30863   1.07790   0.00000  Uiso   1.00
C3286  C     0.67653   0.29964   1.08476   0.00000  Uiso   1.00
H3287  H     0.59682   0.42921   1.06891   0.00000  Uiso   1.00
O3288  O     0.69173   0.23509   1.13446   0.00000  Uiso   1.00
C3289  C     0.66429   0.30767   1.10888   0.00000  Uiso   1.00
H3290  H     0.68395   0.29553   1.15754   0.00000  Uiso   1.00
C3291  C     0.56035   0.41436   1.17178   0.00000  Uiso   1.00
C3292  C     0.84434   0.41536   1.13782   0.00000  Uiso   1.00
C3293  C     0.67387   0.32986   1.12957   0.00000  Uiso   1.00
C3294  C     0.79350   0.32497   1.06926   0.00000  Uiso   1.00
H3295  H     0.60850   0.40696   0.99429   0.00000  Uiso   1.00
H3296  H     0.70981   0.34911   1.10990   0.00000  Uiso   1.00
C3297  C     0.68889   0.35415   1.11656   0.00000  Uiso   1.00
C3298  C     0.62492   0.31588   1.14037   0.00000  Uiso   1.00
C3299  C     0.82225   0.42960   1.14821   0.00000  Uiso   1.00
O3300  O     0.82125   0.28909   1.20097   0.00000  Uiso   1.00
H3301  H     0.87182   0.24501   1.13146   0.00000  Uiso   1.00
C3302  C     0.63041   0.26617   0.97343   0.00000  Uiso   1.00
C3303  C     0.64583   0.33928   1.14035   0.00000  Uiso   1.00
C3304  C     0.87581   0.30352   1.09298   0.00000  Uiso   1.00
H3305  H     0.74039   0.32005   1.05929   0.00000  Uiso   1.00
O3306  O     0.77393   0.42942   1.16401   0.00000  Uiso   1.00
H3307  H     0.70302   0.25210   1.18410   0.00000  Uiso   1.00
H3308  H     0.63918   0.29936   1.18193   0.00000  Uiso   1.00
C3309  C     0.80129   0.40603   0.97832   0.00000  Uiso   1.00
C3310  C     0.84552   0.32590   0.97973   0.00000  Uiso   1.00
H3311  H     0.63807   0.36644   0.98574   0.00000  Uiso   1.00
C3312  C     0.66335   0.40517   1.03227   0.00000  Uiso   1.00
C3313  C     0.68388   0.43348   1.07750   0.00000  Uiso   1.00
C3314  C     0.64594   0.42349   1.04647   0.00000  Uiso   1.00
H3315  H     0.88359   0.24026   1.06580   0.00000  Uiso   1.00
C3316  C     0.65690   0.43654   1.06940   0.00000  Uiso   1.00
N3317  N     0.59827   0.42389   1.13646   0.00000  Uiso   1.00
O3318  O     0.84784   0.33891   1.21795   0.00000  Uiso   1.00
C3319  C     0.58090   0.41931   1.15248   0.00000  Uiso   1.00
O3320  O     0.69617   0.45260   1.09486   0.00000  Uiso   1.00
H3321  H     0.61275   0.46919   1.05568   0.00000  Uiso   1.00
C3322  C     0.69875   0.41104   1.06533   0.00000  Uiso   1.00
O3323  O     0.80998   0.45518   1.08384   0.00000  Uiso   1.00
O3324  O     0.86502   0.37421   1.11794   0.00000  Uiso   1.00
C3325  C     0.79577   0.35153   1.02445   0.00000  Uiso   1.00
N3326  N     0.74040   0.26177   1.08436   0.00000  Uiso   1.00
C3327  C     0.86669   0.46414   1.00913   0.00000  Uiso   1.00
C3328  C     0.84857   0.28997   1.20549   0.00000  Uiso   1.00
H3329  H     0.81907   0.26962   1.06223   0.00000  Uiso   1.00
C3330  C     0.62411   0.28078   1.09982   0.00000  Uiso   1.00
O3331  O     0.61816   0.25857   1.05722   0.00000  Uiso   1.00
C3332  C     0.66835   0.23106   1.20545   0.00000  Uiso   1.00
C3333  C     0.63521   0.27358   1.07436   0.00000  Uiso   1.00
C3334  C     0.85162   0.26119   1.09309   0.00000  Uiso   1.00
C3335  C     0.78778   0.25488   1.01348   0.00000  Uiso   1.00
C3336  C     0.79574   0.34170   0.99363   0.00000  Uiso   1.00
C3337  C     0.62086   0.30003   1.16792   0.00000  Uiso   1.00
C3338  C     0.56406   0.40928   1.19908   0.00000  Uiso   1.00
C3339  C     0.60545   0.33737   1.19962   0.00000  Uiso   1.00
O3340  O     0.72557   0.40675   1.07378   0.00000  Uiso   1.00
C3341  C     0.77712   0.30937   1.21149   0.00000  Uiso   1.00
C3342  C     0.72216   0.24569   1.08580   0.00000  Uiso   1.00
H3343  H     0.85650   0.24679   1.19815   0.00000  Uiso   1.00
C3344  C     0.67884   0.27955   0.98076   0.00000  Uiso   1.00
C3345  C     0.77567   0.37218   1.16263   0.00000  Uiso   1.00
H3346  H     0.60234   0.27382   1.10453   0.00000  Uiso   1.00
O3347  O     0.55646   0.22319   1.16493   0.00000  Uiso   1.00
H3348  H     0.79060   0.37313   1.02931   0.00000  Uiso   1.00
C3349  C     0.73843   0.43052   1.08356   0.00000  Uiso   1.00
N3350  N     0.75564   0.26474   1.19365   0.00000  Uiso   1.00
C3351  C     0.88047   0.33131   1.10060   0.00000  Uiso   1.00
O3352  O     0.59025   0.41230   1.21057   0.00000  Uiso   1.00
N3353  N     0.79524   0.38673   1.07344   0.00000  Uiso   1.00
C3354  C     0.59602   0.31458   1.18126   0.00000  Uiso   1.00
H3355  H     0.61890   0.33066   1.21776   0.00000  Uiso   1.00
C3356  C     0.60017   0.26259   1.01136   0.00000  Uiso   1.00
H3357  H     0.74989   0.35638   1.05707   0.00000  Uiso   1.00
O3358  O     0.78590   0.22721   1.02245   0.00000  Uiso   1.00
H3359  H     0.81768   0.34941   1.03064   0.00000  Uiso   1.00
H3360  H     0.59161   0.28929   1.21829   0.00000  Uiso   1.00
H3361  H     0.73342   0.46056   1.17700   0.00000  Uiso   1.00
C3362  C     0.62210   0.26456   1.02921   0.00000  Uiso   1.00
C3363  C     0.85928   0.34620   1.11395   0.00000  Uiso   1.00
C3364  C     0.83522   0.33207   1.12272   0.00000  Uiso   1.00
H3365  H     0.60160   0.39548   1.05093   0.00000  Uiso   1.00
C3366  C     0.77712   0.45814   1.16584   0.00000  Uiso   1.00
H3367  H     0.81508   0.32133   1.06701   0.00000  Uiso   1.00
H3368  H     0.67843   0.36350   1.09995   0.00000  Uiso   1.00
C3369  C     0.58615   0.33456   1.10989   0.00000  Uiso   1.00
H3370  H     0.71469   0.31195   1.14458   0.00000  Uiso   1.00
C3371  C     0.78190   0.40664   1.07703   0.00000  Uiso   1.00
H3372  H     0.64649   0.34987   1.15977   0.00000  Uiso   1.00
H3373  H     0.57067   0.27803   1.18845   0.00000  Uiso   1.00
C3374  C     0.76715   0.43080   1.08139   0.00000  Uiso   1.00
C3375  C     0.78000   0.32932   1.04075   0.00000  Uiso   1.00
H3376  H     0.61241   0.27901   1.16299   0.00000  Uiso   1.00
H3377  H     0.81326   0.29154   1.12415   0.00000  Uiso   1.00
C3378  C     0.69199   0.31571   1.15146   0.00000  Uiso   1.00
C3379  C     0.84290   0.38826   1.13138   0.00000  Uiso   1.00
H3380  H     0.73457   0.33499   1.02784   0.00000  Uiso   1.00
C3381  C     0.65301   0.27114   0.99086   0.00000  Uiso   1.00
C3382  C     0.68799   0.39749   1.04315   0.00000  Uiso   1.00
C3383  C     0.62090   0.43121   1.03068   0.00000  Uiso   1.00
C3384  C     0.86696   0.26702   1.20319   0.00000  Uiso   1.00
C3385  C     0.83172   0.30328   1.11662   0.00000  Uiso   1.00
H3386  H     0.70129   0.38115   1.03471   0.00000  Uiso   1.00
C3387  C     0.72399   0.45336   1.09305   0.00000  Uiso   1.00
C3388  C     0.74956   0.33537   1.04531   0.00000  Uiso   1.00
H3389  H     0.69212   0.37110   1.13252   0.00000  Uiso   1.00
H3390  H     0.63957   0.35703   1.12491   0.00000  Uiso   1.00
C3391  C     0.57877   0.32678   1.15817   0.00000  Uiso   1.00
C3392  C     0.58782   0.22318   1.20242   0.00000  Uiso   1.00
C3393  C     0.68503   0.23665   1.18271   0.00000  Uiso   1.00
H3394  H     0.58782   0.34810   1.20907   0.00000  Uiso   1.00
H3395  H     0.75918   0.36786   0.98357   0.00000  Uiso   1.00
C3396  C     0.62579   0.41782   1.00243   0.00000  Uiso   1.00
O3397  O     0.70735   0.22288   1.03749   0.00000  Uiso   1.00
H3398  H     0.61574   0.35302   1.18946   0.00000  Uiso   1.00
H3399  H     0.77160   0.27247   1.05107   0.00000  Uiso   1.00
H3400  H     0.86507   0.26602   1.05167   0.00000  Uiso   1.00
H3401  H     0.59630   0.24180   1.19434   0.00000  Uiso   1.00
C3402  C     0.61791   0.46259   1.03334   0.00000  Uiso   1.00
C3403  C     0.79008   0.31081   0.99574   0.00000  Uiso   1.00
C3404  C     0.85476   0.24141   1.11812   0.00000  Uiso   1.00
C3405  C     0.82260   0.34289   0.97733   0.00000  Uiso   1.00
H3406  H     0.84976   0.31076   0.99670   0.00000  Uiso   1.00
H3407  H     0.85451   0.46579   1.05714   0.00000  Uiso   1.00
C3408  C     0.65782   0.37689   0.98923   0.00000  Uiso   1.00
C3409  C     0.79700   0.28943   0.97795   0.00000  Uiso   1.00
O3410  O     0.77736   0.23030   1.15568   0.00000  Uiso   1.00
C3411  C     0.71220   0.45796   0.98222   0.00000  Uiso   1.00
C3412  C     0.67893   0.42089   0.98726   0.00000  Uiso   1.00
C3413  C     0.68962   0.44706   0.99573   0.00000  Uiso   1.00
C3414  C     0.68214   0.22380   1.10859   0.00000  Uiso   1.00
C3415  C     0.56053   0.34526   1.10732   0.00000  Uiso   1.00
C3416  C     0.86137   0.31429   1.21500   0.00000  Uiso   1.00
C3417  C     0.81986   0.33559   1.21857   0.00000  Uiso   1.00
H3418  H     0.72939   0.23141   0.98857   0.00000  Uiso   1.00
H3419  H     0.83480   0.24146   1.13013   0.00000  Uiso   1.00
C3420  C     0.69878   0.22789   1.08519   0.00000  Uiso   1.00
H3421  H     0.55935   0.30347   1.20747   0.00000  Uiso   1.00
H3422  H     0.59924   0.47036   1.02202   0.00000  Uiso   1.00
H3423  H     0.86606   0.44475   1.02177   0.00000  Uiso   1.00
H3424  H     0.70702   0.35373   0.97435   0.00000  Uiso   1.00
H3425  H     0.88623   0.32904   1.04037   0.00000  Uiso   1.00
H3426  H     0.86277   0.45708   0.98841   0.00000  Uiso   1.00
N3427  N     0.88608   0.44238   1.12084   0.00000  Uiso   1.00
C3428  C     0.76225   0.33247   1.22189   0.00000  Uiso   1.00
N3429  N     0.69959   0.28627   0.97235   0.00000  Uiso   1.00
C3430  C     0.61808   0.61833   0.36223   0.00000  Uiso   1.00
O3431  O     0.61022   0.60285   0.33996   0.00000  Uiso   1.00
C3432  C     0.64042   0.61010   0.37738   0.00000  Uiso   1.00
C3433  C     0.60089   0.64054   0.37281   0.00000  Uiso   1.00
C3434  C     0.64889   0.62685   0.39881   0.00000  Uiso   1.00
C3435  C     0.61117   0.65735   0.39241   0.00000  Uiso   1.00
O3436  O     0.56018   0.65817   0.23992   0.00000  Uiso   1.00
H3437  H     0.75080   0.52268   0.32593   0.00000  Uiso   1.00
C3438  C     0.58320   0.70875   0.32064   0.00000  Uiso   1.00
H3439  H     0.71343   0.55909   0.28111   0.00000  Uiso   1.00
C3440  C     0.70441   0.61026   0.26257   0.00000  Uiso   1.00
C3441  C     0.79398   0.51357   0.33176   0.00000  Uiso   1.00
C3442  C     0.72648   0.48800   0.36158   0.00000  Uiso   1.00
C3443  C     0.69091   0.59693   0.28716   0.00000  Uiso   1.00
H3444  H     0.70676   0.51058   0.27443   0.00000  Uiso   1.00
O3445  O     0.59898   0.67544   0.28079   0.00000  Uiso   1.00
C3446  C     0.73183   0.58020   0.39818   0.00000  Uiso   1.00
H3447  H     0.88001   0.50309   0.26562   0.00000  Uiso   1.00
C3448  C     0.86665   0.67984   0.40969   0.00000  Uiso   1.00
N3449  N     0.69559   0.69493   0.23562   0.00000  Uiso   1.00
H3450  H     0.85433   0.57264   0.41423   0.00000  Uiso   1.00
C3451  C     0.63453   0.68311   0.44434   0.00000  Uiso   1.00
C3452  C     0.83812   0.62070   0.30010   0.00000  Uiso   1.00
H3453  H     0.73106   0.53987   0.23060   0.00000  Uiso   1.00
C3454  C     0.85786   0.70731   0.24475   0.00000  Uiso   1.00
H3455  H     0.65127   0.59084   0.37264   0.00000  Uiso   1.00
C3456  C     0.81686   0.52404   0.35106   0.00000  Uiso   1.00
C3457  C     0.67145   0.62126   0.41874   0.00000  Uiso   1.00
C3458  C     0.63655   0.65288   0.40337   0.00000  Uiso   1.00
H3459  H     0.60077   0.67781   0.39506   0.00000  Uiso   1.00
H3460  H     0.70159   0.62570   0.32105   0.00000  Uiso   1.00
H3461  H     0.67031   0.60703   0.32757   0.00000  Uiso   1.00
H3462  H     0.65324   0.63645   0.45634   0.00000  Uiso   1.00
C3463  C     0.87282   0.60523   0.46008   0.00000  Uiso   1.00
C3464  C     0.68356   0.61888   0.31022   0.00000  Uiso   1.00
C3465  C     0.62911   0.64205   0.26225   0.00000  Uiso   1.00
C3466  C     0.73197   0.61562   0.25765   0.00000  Uiso   1.00
C3467  C     0.74798   0.47790   0.40517   0.00000  Uiso   1.00
H3468  H     0.71724   0.56624   0.38743   0.00000  Uiso   1.00
C3469  C     0.81493   0.61215   0.43070   0.00000  Uiso   1.00
H3470  H     0.69241   0.56044   0.31217   0.00000  Uiso   1.00
N3471  N     0.60020   0.71381   0.33645   0.00000  Uiso   1.00
C3472  C     0.66521   0.58743   0.27299   0.00000  Uiso   1.00
C3473  C     0.66942   0.59276   0.43149   0.00000  Uiso   1.00
C3474  C     0.69413   0.47899   0.39930   0.00000  Uiso   1.00
C3475  C     0.88002   0.68233   0.30727   0.00000  Uiso   1.00
C3476  C     0.64543   0.57924   0.43885   0.00000  Uiso   1.00
N3477  N     0.56885   0.61421   0.42282   0.00000  Uiso   1.00
O3478  O     0.57479   0.64708   0.36252   0.00000  Uiso   1.00
H3479  H     0.79661   0.60760   0.41863   0.00000  Uiso   1.00
H3480  H     0.78767   0.56156   0.45379   0.00000  Uiso   1.00
H3481  H     0.67141   0.63717   0.30290   0.00000  Uiso   1.00
C3482  C     0.59239   0.62599   0.22264   0.00000  Uiso   1.00
C3483  C     0.58524   0.64732   0.24100   0.00000  Uiso   1.00
C3484  C     0.84072   0.61067   0.36456   0.00000  Uiso   1.00
O3485  O     0.85483   0.65968   0.39227   0.00000  Uiso   1.00
H3486  H     0.59580   0.56102   0.23434   0.00000  Uiso   1.00
C3487  C     0.70410   0.48954   0.34335   0.00000  Uiso   1.00
C3488  C     0.57241   0.68568   0.28008   0.00000  Uiso   1.00
C3489  C     0.60452   0.65573   0.26126   0.00000  Uiso   1.00
C3490  C     0.63059   0.48610   0.34286   0.00000  Uiso   1.00
H3491  H     0.72877   0.48761   0.44371   0.00000  Uiso   1.00
C3492  C     0.57264   0.59321   0.30877   0.00000  Uiso   1.00
C3493  C     0.58637   0.57060   0.29789   0.00000  Uiso   1.00
C3494  C     0.76465   0.51818   0.34353   0.00000  Uiso   1.00
C3495  C     0.58354   0.60827   0.32964   0.00000  Uiso   1.00
O3496  O     0.88246   0.57849   0.34648   0.00000  Uiso   1.00
C3497  C     0.66001   0.60067   0.24453   0.00000  Uiso   1.00
H3498  H     0.73455   0.68907   0.33529   0.00000  Uiso   1.00
H3499  H     0.66533   0.56511   0.27323   0.00000  Uiso   1.00
C3500  C     0.74090   0.62891   0.23540   0.00000  Uiso   1.00
C3501  C     0.72100   0.48050   0.38861   0.00000  Uiso   1.00
C3502  C     0.80222   0.71018   0.33104   0.00000  Uiso   1.00
C3503  C     0.73851   0.60242   0.44267   0.00000  Uiso   1.00
H3504  H     0.84073   0.54731   0.43386   0.00000  Uiso   1.00
H3505  H     0.82091   0.56157   0.40520   0.00000  Uiso   1.00
N3506  N     0.77213   0.59509   0.31339   0.00000  Uiso   1.00
C3507  C     0.77070   0.48634   0.38536   0.00000  Uiso   1.00
H3508  H     0.72609   0.57947   0.30759   0.00000  Uiso   1.00
C3509  C     0.56786   0.63049   0.34025   0.00000  Uiso   1.00
C3510  C     0.70660   0.57305   0.29791   0.00000  Uiso   1.00
C3511  C     0.64899   0.49857   0.46659   0.00000  Uiso   1.00
C3512  C     0.65321   0.66845   0.42565   0.00000  Uiso   1.00
H3513  H     0.76629   0.53389   0.35934   0.00000  Uiso   1.00
C3514  C     0.61573   0.61089   0.22670   0.00000  Uiso   1.00
C3515  C     0.67332   0.53786   0.45341   0.00000  Uiso   1.00
H3516  H     0.74199   0.59236   0.38158   0.00000  Uiso   1.00
H3517  H     0.81775   0.51535   0.37245   0.00000  Uiso   1.00
H3518  H     0.78216   0.53102   0.28827   0.00000  Uiso   1.00
C3519  C     0.68742   0.61408   0.23974   0.00000  Uiso   1.00
H3520  H     0.62664   0.70152   0.43267   0.00000  Uiso   1.00
H3521  H     0.71711   0.54205   0.44850   0.00000  Uiso   1.00
C3522  C     0.70112   0.62049   0.40707   0.00000  Uiso   1.00
H3523  H     0.77998   0.50591   0.39326   0.00000  Uiso   1.00
C3524  C     0.82448   0.58726   0.44505   0.00000  Uiso   1.00
H3525  H     0.83217   0.47722   0.30441   0.00000  Uiso   1.00
C3526  C     0.86726   0.55984   0.26694   0.00000  Uiso   1.00
H3527  H     0.83682   0.52041   0.34085   0.00000  Uiso   1.00
C3528  C     0.80895   0.65668   0.31682   0.00000  Uiso   1.00
C3529  C     0.86442   0.58548   0.27858   0.00000  Uiso   1.00
H3530  H     0.64409   0.65372   0.27757   0.00000  Uiso   1.00
H3531  H     0.80455   0.55202   0.31014   0.00000  Uiso   1.00
H3532  H     0.71151   0.64025   0.41038   0.00000  Uiso   1.00
H3533  H     0.81908   0.52246   0.29452   0.00000  Uiso   1.00
C3534  C     0.62359   0.48132   0.37141   0.00000  Uiso   1.00
C3535  C     0.64727   0.55282   0.44946   0.00000  Uiso   1.00
H3536  H     0.83294   0.51806   0.46380   0.00000  Uiso   1.00
H3537  H     0.74874   0.56872   0.40740   0.00000  Uiso   1.00
N3538  N     0.81831   0.60246   0.36272   0.00000  Uiso   1.00
C3539  C     0.58185   0.47690   0.33146   0.00000  Uiso   1.00
C3540  C     0.86036   0.63942   0.29895   0.00000  Uiso   1.00
C3541  C     0.67794   0.48723   0.35253   0.00000  Uiso   1.00
C3542  C     0.61722   0.48583   0.29633   0.00000  Uiso   1.00
H3543  H     0.76440   0.49583   0.44282   0.00000  Uiso   1.00
C3544  C     0.78982   0.61018   0.31162   0.00000  Uiso   1.00
H3545  H     0.74721   0.61294   0.27459   0.00000  Uiso   1.00
C3546  C     0.70803   0.50092   0.23203   0.00000  Uiso   1.00
H3547  H     0.75635   0.61254   0.43291   0.00000  Uiso   1.00
C3548  C     0.83067   0.67450   0.31666   0.00000  Uiso   1.00
H3549  H     0.85431   0.68754   0.23358   0.00000  Uiso   1.00
C3550  C     0.85152   0.68639   0.43246   0.00000  Uiso   1.00
H3551  H     0.73005   0.61636   0.45806   0.00000  Uiso   1.00
H3552  H     0.62536   0.58857   0.43370   0.00000  Uiso   1.00
H3553  H     0.65347   0.55745   0.22913   0.00000  Uiso   1.00
C3554  C     0.67181   0.68731   0.40946   0.00000  Uiso   1.00
H3555  H     0.61609   0.67156   0.44895   0.00000  Uiso   1.00
C3556  C     0.66835   0.64274   0.43977   0.00000  Uiso   1.00
N3557  N     0.59772   0.55216   0.28843   0.00000  Uiso   1.00
C3558  C     0.69422   0.57898   0.43373   0.00000  Uiso   1.00
H3559  H     0.69950   0.61743   0.38457   0.00000  Uiso   1.00
H3560  H     0.83042   0.67824   0.43798   0.00000  Uiso   1.00
H3561  H     0.81356   0.54600   0.35341   0.00000  Uiso   1.00
C3562  C     0.86109   0.70599   0.45047   0.00000  Uiso   1.00
O3563  O     0.78298   0.66499   0.32577   0.00000  Uiso   1.00
H3564  H     0.84757   0.54762   0.26944   0.00000  Uiso   1.00
C3565  C     0.87522   0.64602   0.37537   0.00000  Uiso   1.00
C3566  C     0.86821   0.62040   0.36418   0.00000  Uiso   1.00
H3567  H     0.69213   0.47626   0.42172   0.00000  Uiso   1.00
H3568  H     0.68958   0.53717   0.25311   0.00000  Uiso   1.00
O3569  O     0.88587   0.62996   0.28894   0.00000  Uiso   1.00
N3570  N     0.83875   0.62205   0.23341   0.00000  Uiso   1.00
C3571  C     0.71694   0.59626   0.42088   0.00000  Uiso   1.00
C3572  C     0.83443   0.56604   0.42385   0.00000  Uiso   1.00
H3573  H     0.68843   0.64945   0.44899   0.00000  Uiso   1.00
O3574  O     0.84110   0.59321   0.29311   0.00000  Uiso   1.00
C3575  C     0.81215   0.62970   0.30941   0.00000  Uiso   1.00
H3576  H     0.67390   0.50685   0.26183   0.00000  Uiso   1.00
C3577  C     0.77955   0.69224   0.33018   0.00000  Uiso   1.00
C3578  C     0.85628   0.66514   0.30706   0.00000  Uiso   1.00
O3579  O     0.82869   0.70124   0.32474   0.00000  Uiso   1.00
C3580  C     0.59694   0.47739   0.37930   0.00000  Uiso   1.00
C3581  C     0.69368   0.51430   0.25650   0.00000  Uiso   1.00
C3582  C     0.79939   0.53020   0.30410   0.00000  Uiso   1.00
C3583  C     0.79348   0.48374   0.32499   0.00000  Uiso   1.00
H3584  H     0.83100   0.62321   0.41837   0.00000  Uiso   1.00
C3585  C     0.74546   0.49647   0.42983   0.00000  Uiso   1.00
C3586  C     0.88461   0.72052   0.44386   0.00000  Uiso   1.00
C3587  C     0.63488   0.61854   0.24636   0.00000  Uiso   1.00
H3588  H     0.68427   0.69857   0.42355   0.00000  Uiso   1.00
H3589  H     0.64868   0.59338   0.28732   0.00000  Uiso   1.00
H3590  H     0.69146   0.71893   0.34771   0.00000  Uiso   1.00
H3591  H     0.66107   0.70298   0.39559   0.00000  Uiso   1.00
H3592  H     0.87824   0.61081   0.43895   0.00000  Uiso   1.00
H3593  H     0.74097   0.51878   0.42536   0.00000  Uiso   1.00
H3594  H     0.80597   0.62539   0.44626   0.00000  Uiso   1.00
C3595  C     0.75766   0.49107   0.35662   0.00000  Uiso   1.00
H3596  H     0.70733   0.49263   0.32175   0.00000  Uiso   1.00
H3597  H     0.68375   0.67546   0.39358   0.00000  Uiso   1.00
H3598  H     0.80772   0.69142   0.23280   0.00000  Uiso   1.00
O3599  O     0.76978   0.63209   0.23275   0.00000  Uiso   1.00
C3600  C     0.75270   0.70257   0.33192   0.00000  Uiso   1.00
C3601  C     0.62366   0.51285   0.46546   0.00000  Uiso   1.00
C3602  C     0.69685   0.55140   0.44496   0.00000  Uiso   1.00
C3603  C     0.57591   0.47451   0.35918   0.00000  Uiso   1.00
H3604  H     0.78732   0.59439   0.46810   0.00000  Uiso   1.00
N3605  N     0.62566   0.48805   0.27462   0.00000  Uiso   1.00
O3606  O     0.62214   0.53984   0.45435   0.00000  Uiso   1.00
C3607  C     0.56756   0.63071   0.43951   0.00000  Uiso   1.00
C3608  C     0.88820   0.60395   0.27697   0.00000  Uiso   1.00
C3609  C     0.80897   0.70786   0.24605   0.00000  Uiso   1.00
H3610  H     0.74500   0.58162   0.45128   0.00000  Uiso   1.00
O3611  O     0.67463   0.51069   0.46138   0.00000  Uiso   1.00
C3612  C     0.67275   0.48062   0.38056   0.00000  Uiso   1.00
C3613  C     0.56481   0.70234   0.30124   0.00000  Uiso   1.00
H3614  H     0.86088   0.70549   0.26700   0.00000  Uiso   1.00
C3615  C     0.60897   0.48298   0.32357   0.00000  Uiso   1.00
H3616  H     0.88638   0.52450   0.35555   0.00000  Uiso   1.00
H3617  H     0.81384   0.69782   0.26592   0.00000  Uiso   1.00
O3618  O     0.65723   0.49062   0.33332   0.00000  Uiso   1.00
O3619  O     0.64605   0.47913   0.39101   0.00000  Uiso   1.00
H3620  H     0.64524   0.68990   0.46269   0.00000  Uiso   1.00
H3621  H     0.75184   0.50875   0.23237   0.00000  Uiso   1.00
C3622  C     0.80063   0.57642   0.46379   0.00000  Uiso   1.00
C3623  C     0.84874   0.59111   0.46533   0.00000  Uiso   1.00
C3624  C     0.59198   0.47295   0.40746   0.00000  Uiso   1.00
C3625  C     0.56536   0.65180   0.46061   0.00000  Uiso   1.00
C3626  C     0.73285   0.51840   0.22404   0.00000  Uiso   1.00
H3627  H     0.87786   0.71733   0.23927   0.00000  Uiso   1.00
H3628  H     0.78798   0.71507   0.24853   0.00000  Uiso   1.00
H3629  H     0.85712   0.51784   0.22398   0.00000  Uiso   1.00
C3630  C     0.88804   0.60563   0.35304   0.00000  Uiso   1.00
C3631  C     0.65474   0.57829   0.22262   0.00000  Uiso   1.00
H3632  H     0.58841   0.47395   0.57811   0.00000  Uiso   1.00
C3633  C     0.87566   0.54936   0.59017   0.00000  Uiso   1.00
H3634  H     0.78312   0.52895   0.65516   0.00000  Uiso   1.00
C3635  C     0.78400   0.50847   0.52592   0.00000  Uiso   1.00
C3636  C     0.84195   0.58327   0.49217   0.00000  Uiso   1.00
C3637  C     0.87838   0.47372   0.50713   0.00000  Uiso   1.00
O3638  O     0.87903   0.67915   0.71766   0.00000  Uiso   1.00
C3639  C     0.87615   0.63375   0.64462   0.00000  Uiso   1.00
C3640  C     0.66483   0.62678   0.60854   0.00000  Uiso   1.00
C3641  C     0.62467   0.53196   0.61248   0.00000  Uiso   1.00
C3642  C     0.58206   0.67361   0.50412   0.00000  Uiso   1.00
C3643  C     0.61423   0.55787   0.60851   0.00000  Uiso   1.00
H3644  H     0.61253   0.59423   0.58381   0.00000  Uiso   1.00
H3645  H     0.79439   0.63080   0.62678   0.00000  Uiso   1.00
H3646  H     0.69090   0.66637   0.58740   0.00000  Uiso   1.00
C3647  C     0.80957   0.48923   0.48874   0.00000  Uiso   1.00
C3648  C     0.83544   0.70603   0.54575   0.00000  Uiso   1.00
H3649  H     0.82383   0.49900   0.67926   0.00000  Uiso   1.00
H3650  H     0.77518   0.68473   0.52249   0.00000  Uiso   1.00
C3651  C     0.81876   0.51608   0.48233   0.00000  Uiso   1.00
H3652  H     0.71026   0.54271   0.57955   0.00000  Uiso   1.00
C3653  C     0.77640   0.55933   0.55833   0.00000  Uiso   1.00
C3654  C     0.81341   0.57033   0.49165   0.00000  Uiso   1.00
H3655  H     0.56969   0.69601   0.60099   0.00000  Uiso   1.00
H3656  H     0.64616   0.51151   0.52920   0.00000  Uiso   1.00
C3657  C     0.81067   0.70270   0.50209   0.00000  Uiso   1.00
C3658  C     0.84649   0.50062   0.59421   0.00000  Uiso   1.00
C3659  C     0.82603   0.65889   0.53032   0.00000  Uiso   1.00
C3660  C     0.58329   0.55373   0.53275   0.00000  Uiso   1.00
H3661  H     0.69043   0.56019   0.51968   0.00000  Uiso   1.00
C3662  C     0.76293   0.71257   0.48853   0.00000  Uiso   1.00
C3663  C     0.82483   0.52085   0.64110   0.00000  Uiso   1.00
C3664  C     0.79741   0.58329   0.51697   0.00000  Uiso   1.00
H3665  H     0.79698   0.55278   0.56592   0.00000  Uiso   1.00
H3666  H     0.87536   0.69328   0.51279   0.00000  Uiso   1.00
O3667  O     0.86106   0.48595   0.55062   0.00000  Uiso   1.00
C3668  C     0.86083   0.50671   0.57011   0.00000  Uiso   1.00
C3669  C     0.85148   0.71453   0.47937   0.00000  Uiso   1.00
C3670  C     0.56925   0.50642   0.65734   0.00000  Uiso   1.00
H3671  H     0.70084   0.50722   0.58080   0.00000  Uiso   1.00
H3672  H     0.68134   0.61589   0.61983   0.00000  Uiso   1.00
C3673  C     0.70278   0.52525   0.56708   0.00000  Uiso   1.00
H3674  H     0.85507   0.58081   0.53285   0.00000  Uiso   1.00
H3675  H     0.71918   0.52270   0.55205   0.00000  Uiso   1.00
H3676  H     0.78886   0.53969   0.61974   0.00000  Uiso   1.00
H3677  H     0.68021   0.49858   0.52437   0.00000  Uiso   1.00
H3678  H     0.82349   0.64400   0.51296   0.00000  Uiso   1.00
H3679  H     0.74647   0.56897   0.49440   0.00000  Uiso   1.00
C3680  C     0.57870   0.48002   0.66368   0.00000  Uiso   1.00
C3681  C     0.64990   0.60673   0.53889   0.00000  Uiso   1.00
C3682  C     0.86790   0.58515   0.64555   0.00000  Uiso   1.00
C3683  C     0.83181   0.49580   0.65934   0.00000  Uiso   1.00
H3684  H     0.85526   0.70225   0.55433   0.00000  Uiso   1.00
H3685  H     0.62783   0.58686   0.50693   0.00000  Uiso   1.00
C3686  C     0.66258   0.58154   0.55136   0.00000  Uiso   1.00
H3687  H     0.70261   0.60462   0.55234   0.00000  Uiso   1.00
H3688  H     0.80839   0.65930   0.54484   0.00000  Uiso   1.00
C3689  C     0.57820   0.55119   0.63738   0.00000  Uiso   1.00
C3690  C     0.86028   0.58793   0.51262   0.00000  Uiso   1.00
C3691  C     0.65291   0.63081   0.55486   0.00000  Uiso   1.00
C3692  C     0.87676   0.53025   0.56905   0.00000  Uiso   1.00
C3693  C     0.69852   0.64712   0.57705   0.00000  Uiso   1.00
C3694  C     0.88323   0.60470   0.50939   0.00000  Uiso   1.00
C3695  C     0.62313   0.57445   0.58677   0.00000  Uiso   1.00
C3696  C     0.68637   0.59857   0.56739   0.00000  Uiso   1.00
H3697  H     0.63762   0.66911   0.56781   0.00000  Uiso   1.00
C3698  C     0.60002   0.47426   0.48564   0.00000  Uiso   1.00
O3699  O     0.59486   0.57072   0.62477   0.00000  Uiso   1.00
H3700  H     0.82335   0.47663   0.65103   0.00000  Uiso   1.00
C3701  C     0.61833   0.63053   0.50872   0.00000  Uiso   1.00
C3702  C     0.65507   0.53829   0.57340   0.00000  Uiso   1.00
H3703  H     0.70542   0.65296   0.55604   0.00000  Uiso   1.00
N3704  N     0.66775   0.69654   0.51995   0.00000  Uiso   1.00
N3705  N     0.60475   0.55064   0.52191   0.00000  Uiso   1.00
C3706  C     0.87717   0.49403   0.52747   0.00000  Uiso   1.00
H3707  H     0.76128   0.54516   0.56736   0.00000  Uiso   1.00
H3708  H     0.76937   0.57967   0.56689   0.00000  Uiso   1.00
C3709  C     0.67514   0.62664   0.57787   0.00000  Uiso   1.00
O3710  O     0.61333   0.51557   0.63330   0.00000  Uiso   1.00
H3711  H     0.84257   0.65483   0.54436   0.00000  Uiso   1.00
C3712  C     0.63305   0.60594   0.51613   0.00000  Uiso   1.00
C3713  C     0.83258   0.68821   0.51928   0.00000  Uiso   1.00
C3714  C     0.86057   0.61119   0.63704   0.00000  Uiso   1.00
C3715  C     0.64427   0.56494   0.57086   0.00000  Uiso   1.00
C3716  C     0.55962   0.69183   0.50252   0.00000  Uiso   1.00
O3717  O     0.56803   0.52394   0.57723   0.00000  Uiso   1.00
C3718  C     0.66585   0.50793   0.53901   0.00000  Uiso   1.00
C3719  C     0.80995   0.53850   0.49623   0.00000  Uiso   1.00
H3720  H     0.69670   0.58499   0.58262   0.00000  Uiso   1.00
H3721  H     0.85997   0.66991   0.49102   0.00000  Uiso   1.00
H3722  H     0.82236   0.65148   0.64194   0.00000  Uiso   1.00
C3723  C     0.83402   0.61383   0.62169   0.00000  Uiso   1.00
C3724  C     0.81464   0.63059   0.63828   0.00000  Uiso   1.00
C3725  C     0.84234   0.52096   0.61516   0.00000  Uiso   1.00
C3726  C     0.85729   0.54508   0.61169   0.00000  Uiso   1.00
H3727  H     0.81710   0.57532   0.60175   0.00000  Uiso   1.00
H3728  H     0.81030   0.62337   0.66055   0.00000  Uiso   1.00
C3729  C     0.82582   0.58312   0.62160   0.00000  Uiso   1.00
C3730  C     0.78167   0.69882   0.50508   0.00000  Uiso   1.00
C3731  C     0.64516   0.52204   0.59618   0.00000  Uiso   1.00
H3732  H     0.80636   0.58254   0.63247   0.00000  Uiso   1.00
C3733  C     0.84809   0.56479   0.63465   0.00000  Uiso   1.00
H3734  H     0.81973   0.55644   0.66839   0.00000  Uiso   1.00
C3735  C     0.83604   0.54612   0.65664   0.00000  Uiso   1.00
C3736  C     0.55751   0.55969   0.54595   0.00000  Uiso   1.00
C3737  C     0.79406   0.52428   0.63554   0.00000  Uiso   1.00
C3738  C     0.74911   0.56508   0.51591   0.00000  Uiso   1.00
H3739  H     0.73751   0.54487   0.52015   0.00000  Uiso   1.00
C3740  C     0.85623   0.69029   0.50007   0.00000  Uiso   1.00
C3741  C     0.67621   0.53304   0.55187   0.00000  Uiso   1.00
O3742  O     0.60383   0.63199   0.48482   0.00000  Uiso   1.00
C3743  C     0.63683   0.65383   0.55101   0.00000  Uiso   1.00
C3744  C     0.61889   0.65310   0.52853   0.00000  Uiso   1.00
C3745  C     0.77846   0.56145   0.52689   0.00000  Uiso   1.00
H3746  H     0.65245   0.50118   0.60166   0.00000  Uiso   1.00
H3747  H     0.82253   0.62660   0.58090   0.00000  Uiso   1.00
H3748  H     0.85545   0.61049   0.58207   0.00000  Uiso   1.00
H3749  H     0.85912   0.71158   0.67866   0.00000  Uiso   1.00
H3750  H     0.66472   0.49140   0.55366   0.00000  Uiso   1.00
H3751  H     0.65533   0.55257   0.51863   0.00000  Uiso   1.00
H3752  H     0.81196   0.58986   0.53202   0.00000  Uiso   1.00
C3753  C     0.79312   0.48489   0.51213   0.00000  Uiso   1.00
H3754  H     0.66343   0.64812   0.61666   0.00000  Uiso   1.00
H3755  H     0.85511   0.49145   0.66053   0.00000  Uiso   1.00
H3756  H     0.73950   0.58180   0.52794   0.00000  Uiso   1.00
H3757  H     0.76972   0.50710   0.54330   0.00000  Uiso   1.00
C3758  C     0.79148   0.53491   0.51796   0.00000  Uiso   1.00
H3759  H     0.85397   0.54073   0.66997   0.00000  Uiso   1.00
C3760  C     0.58693   0.52450   0.64393   0.00000  Uiso   1.00
H3761  H     0.71610   0.63985   0.58943   0.00000  Uiso   1.00
H3762  H     0.85061   0.64403   0.59148   0.00000  Uiso   1.00
H3763  H     0.81833   0.70323   0.56000   0.00000  Uiso   1.00
H3764  H     0.87032   0.65597   0.63866   0.00000  Uiso   1.00
H3765  H     0.78320   0.50551   0.62712   0.00000  Uiso   1.00
C3766  C     0.67251   0.55740   0.53361   0.00000  Uiso   1.00
C3767  C     0.58311   0.65277   0.48376   0.00000  Uiso   1.00
H3768  H     0.78686   0.60284   0.50987   0.00000  Uiso   1.00
C3769  C     0.84074   0.62463   0.59338   0.00000  Uiso   1.00
H3770  H     0.83726   0.47975   0.59701   0.00000  Uiso   1.00
H3771  H     0.64543   0.61559   0.61150   0.00000  Uiso   1.00
H3772  H     0.71969   0.62670   0.71331   0.00000  Uiso   1.00
O3773  O     0.60023   0.67451   0.52741   0.00000  Uiso   1.00
N3774  N     0.55922   0.56207   0.71173   0.00000  Uiso   1.00
C3775  C     0.82034   0.71718   0.48073   0.00000  Uiso   1.00
C3776  C     0.55730   0.71361   0.52098   0.00000  Uiso   1.00
C3777  C     0.60015   0.50198   0.47620   0.00000  Uiso   1.00
C3778  C     0.88104   0.70743   0.71635   0.00000  Uiso   1.00
C3779  C     0.56986   0.71657   0.60891   0.00000  Uiso   1.00
C3780  C     0.56584   0.47538   0.58708   0.00000  Uiso   1.00
O3781  O     0.73538   0.71034   0.49425   0.00000  Uiso   1.00
C3782  C     0.57529   0.51735   0.47359   0.00000  Uiso   1.00
C3783  C     0.67760   0.71042   0.50297   0.00000  Uiso   1.00
N3784  N     0.86348   0.61050   0.70996   0.00000  Uiso   1.00
H3785  H     0.58119   0.71851   0.62975   0.00000  Uiso   1.00
H3786  H     0.74626   0.65159   0.72164   0.00000  Uiso   1.00
C3787  C     0.87906   0.62190   0.72194   0.00000  Uiso   1.00
H3788  H     0.68655   0.51505   0.82397   0.00000  Uiso   1.00
C3789  C     0.83330   0.49956   0.73792   0.00000  Uiso   1.00
H3790  H     0.87506   0.52826   0.94194   0.00000  Uiso   1.00
H3791  H     0.61353   0.56595   0.93240   0.00000  Uiso   1.00
H3792  H     0.71150   0.54781   0.78448   0.00000  Uiso   1.00
C3793  C     0.80010   0.58995   0.92678   0.00000  Uiso   1.00
H3794  H     0.57209   0.58399   0.87713   0.00000  Uiso   1.00
C3795  C     0.58387   0.53253   0.80418   0.00000  Uiso   1.00
C3796  C     0.59235   0.55893   0.93300   0.00000  Uiso   1.00
C3797  C     0.82801   0.52725   0.74205   0.00000  Uiso   1.00
C3798  C     0.72192   0.52723   0.90288   0.00000  Uiso   1.00
C3799  C     0.85061   0.54480   0.74249   0.00000  Uiso   1.00
C3800  C     0.74920   0.55187   0.76089   0.00000  Uiso   1.00
C3801  C     0.59063   0.64303   0.84808   0.00000  Uiso   1.00
H3802  H     0.72844   0.57526   0.86161   0.00000  Uiso   1.00
O3803  O     0.76839   0.54250   0.91555   0.00000  Uiso   1.00
C3804  C     0.81716   0.61375   0.81275   0.00000  Uiso   1.00
H3805  H     0.75729   0.66223   0.76781   0.00000  Uiso   1.00
C3806  C     0.60039   0.61878   0.82935   0.00000  Uiso   1.00
C3807  C     0.76212   0.50614   0.88091   0.00000  Uiso   1.00
H3808  H     0.59143   0.53993   0.91947   0.00000  Uiso   1.00
H3809  H     0.77799   0.61504   0.74445   0.00000  Uiso   1.00
C3810  C     0.77160   0.58997   0.93198   0.00000  Uiso   1.00
C3811  C     0.69434   0.63087   0.76829   0.00000  Uiso   1.00
O3812  O     0.60675   0.55687   0.76681   0.00000  Uiso   1.00
H3813  H     0.76654   0.53280   0.81614   0.00000  Uiso   1.00
C3814  C     0.57865   0.65420   0.93903   0.00000  Uiso   1.00
C3815  C     0.71273   0.56896   0.84583   0.00000  Uiso   1.00
O3816  O     0.60572   0.53805   0.82387   0.00000  Uiso   1.00
C3817  C     0.60076   0.64002   0.87801   0.00000  Uiso   1.00
O3818  O     0.77773   0.63356   0.95204   0.00000  Uiso   1.00
C3819  C     0.81059   0.48039   0.73762   0.00000  Uiso   1.00
C3820  C     0.57535   0.65599   0.96712   0.00000  Uiso   1.00
C3821  C     0.75551   0.56640   0.92479   0.00000  Uiso   1.00
C3822  C     0.86022   0.55235   0.81447   0.00000  Uiso   1.00
C3823  C     0.68030   0.49441   0.82691   0.00000  Uiso   1.00
H3824  H     0.70133   0.55238   0.85566   0.00000  Uiso   1.00
C3825  C     0.57596   0.62905   0.92557   0.00000  Uiso   1.00
C3826  C     0.83290   0.51280   0.81664   0.00000  Uiso   1.00
H3827  H     0.62275   0.61947   0.82949   0.00000  Uiso   1.00
H3828  H     0.70948   0.66030   0.72468   0.00000  Uiso   1.00
C3829  C     0.62877   0.56106   0.78549   0.00000  Uiso   1.00
C3830  C     0.74529   0.49378   0.86072   0.00000  Uiso   1.00
H3831  H     0.74209   0.65026   0.79699   0.00000  Uiso   1.00
C3832  C     0.65099   0.57635   0.77472   0.00000  Uiso   1.00
C3833  C     0.76185   0.59978   0.75222   0.00000  Uiso   1.00
H3834  H     0.62173   0.67367   0.83371   0.00000  Uiso   1.00
C3835  C     0.55884   0.64049   0.85233   0.00000  Uiso   1.00
H3836  H     0.82662   0.70583   0.95845   0.00000  Uiso   1.00
H3837  H     0.80442   0.67374   0.97166   0.00000  Uiso   1.00
H3838  H     0.59361   0.59823   0.83481   0.00000  Uiso   1.00
C3839  C     0.73086   0.61573   0.94331   0.00000  Uiso   1.00
H3840  H     0.59198   0.62338   0.80858   0.00000  Uiso   1.00
C3841  C     0.80304   0.47430   0.82367   0.00000  Uiso   1.00
H3842  H     0.66923   0.62586   0.85792   0.00000  Uiso   1.00
C3843  C     0.71739   0.49580   0.86356   0.00000  Uiso   1.00
C3844  C     0.57325   0.58025   0.92066   0.00000  Uiso   1.00
C3845  C     0.78126   0.51707   0.75293   0.00000  Uiso   1.00
C3846  C     0.72531   0.64437   0.72685   0.00000  Uiso   1.00
C3847  C     0.56051   0.55207   0.73385   0.00000  Uiso   1.00
C3848  C     0.72346   0.63562   0.75744   0.00000  Uiso   1.00
H3849  H     0.66588   0.59338   0.87431   0.00000  Uiso   1.00
H3850  H     0.64477   0.56031   0.85267   0.00000  Uiso   1.00
C3851  C     0.76463   0.65493   0.96467   0.00000  Uiso   1.00
H3852  H     0.59241   0.67198   0.81361   0.00000  Uiso   1.00
C3853  C     0.73717   0.65714   0.77585   0.00000  Uiso   1.00
C3854  C     0.82989   0.48533   0.81882   0.00000  Uiso   1.00
C3855  C     0.80160   0.53594   0.74726   0.00000  Uiso   1.00
H3856  H     0.72510   0.56133   0.82940   0.00000  Uiso   1.00
C3857  C     0.66949   0.58082   0.82068   0.00000  Uiso   1.00
H3858  H     0.58051   0.67268   0.92543   0.00000  Uiso   1.00
C3859  C     0.70585   0.51234   0.88470   0.00000  Uiso   1.00
H3860  H     0.59313   0.68903   0.84837   0.00000  Uiso   1.00
C3861  C     0.64916   0.56310   0.82989   0.00000  Uiso   1.00
C3862  C     0.76825   0.57155   0.75234   0.00000  Uiso   1.00
C3863  C     0.57824   0.62614   0.89510   0.00000  Uiso   1.00
H3864  H     0.60503   0.58796   0.89261   0.00000  Uiso   1.00
H3865  H     0.72548   0.67646   0.77612   0.00000  Uiso   1.00
C3866  C     0.58295   0.59370   0.89446   0.00000  Uiso   1.00
N3867  N     0.82385   0.58975   0.92291   0.00000  Uiso   1.00
C3868  C     0.78462   0.48895   0.74698   0.00000  Uiso   1.00
C3869  C     0.80049   0.50298   0.96600   0.00000  Uiso   1.00
C3870  C     0.67055   0.58796   0.79249   0.00000  Uiso   1.00
H3871  H     0.65150   0.58267   0.75193   0.00000  Uiso   1.00
H3872  H     0.69696   0.63481   0.82423   0.00000  Uiso   1.00
C3873  C     0.73619   0.60806   0.76104   0.00000  Uiso   1.00
C3874  C     0.68032   0.60724   0.86302   0.00000  Uiso   1.00
C3875  C     0.58444   0.54189   0.77688   0.00000  Uiso   1.00
C3876  C     0.73512   0.65842   0.96497   0.00000  Uiso   1.00
C3877  C     0.57131   0.60479   0.93981   0.00000  Uiso   1.00
C3878  C     0.56088   0.51849   0.81400   0.00000  Uiso   1.00
O3879  O     0.70884   0.54670   0.91911   0.00000  Uiso   1.00
H3880  H     0.72753   0.61835   0.81802   0.00000  Uiso   1.00
C3881  C     0.71467   0.59355   0.93573   0.00000  Uiso   1.00
C3882  C     0.83751   0.56956   0.81213   0.00000  Uiso   1.00
C3883  C     0.72590   0.56856   0.92745   0.00000  Uiso   1.00
N3884  N     0.86977   0.55832   0.74431   0.00000  Uiso   1.00
N3885  N     0.79755   0.62745   0.81214   0.00000  Uiso   1.00
C3886  C     0.68624   0.59636   0.93482   0.00000  Uiso   1.00
H3887  H     0.69554   0.61168   0.87965   0.00000  Uiso   1.00
O3888  O     0.81092   0.55859   0.81066   0.00000  Uiso   1.00
C3889  C     0.69352   0.59309   0.83721   0.00000  Uiso   1.00
C3890  C     0.56110   0.54118   0.76073   0.00000  Uiso   1.00
N3891  N     0.55761   0.50099   0.86356   0.00000  Uiso   1.00
C3892  C     0.84081   0.59813   0.81451   0.00000  Uiso   1.00
H3893  H     0.60255   0.66159   0.88529   0.00000  Uiso   1.00
H3894  H     0.78458   0.50459   0.87807   0.00000  Uiso   1.00
H3895  H     0.84242   0.63349   0.95492   0.00000  Uiso   1.00
C3896  C     0.80982   0.53099   0.81486   0.00000  Uiso   1.00
C3897  C     0.70624   0.61380   0.81730   0.00000  Uiso   1.00
C3898  C     0.55851   0.50979   0.84126   0.00000  Uiso   1.00
C3899  C     0.78375   0.51979   0.81975   0.00000  Uiso   1.00
N3900  N     0.66307   0.59905   0.93356   0.00000  Uiso   1.00
O3901  O     0.75385   0.52335   0.76021   0.00000  Uiso   1.00
C3902  C     0.75132   0.52516   0.89995   0.00000  Uiso   1.00
H3903  H     0.72879   0.49681   0.80679   0.00000  Uiso   1.00
H3904  H     0.66216   0.49571   0.84060   0.00000  Uiso   1.00
H3905  H     0.62229   0.63258   0.88062   0.00000  Uiso   1.00
O3906  O     0.79530   0.56427   0.74470   0.00000  Uiso   1.00
C3907  C     0.76012   0.61364   0.94250   0.00000  Uiso   1.00
C3908  C     0.71893   0.58998   0.77415   0.00000  Uiso   1.00
C3909  C     0.69629   0.60642   0.78756   0.00000  Uiso   1.00
C3910  C     0.59996   0.67193   0.83591   0.00000  Uiso   1.00
C3911  C     0.70326   0.47918   0.84025   0.00000  Uiso   1.00
H3912  H     0.68344   0.51402   0.88613   0.00000  Uiso   1.00
C3913  C     0.78040   0.49154   0.82495   0.00000  Uiso   1.00
H3914  H     0.68051   0.62528   0.75094   0.00000  Uiso   1.00
H3915  H     0.68331   0.64846   0.77657   0.00000  Uiso   1.00
C3916  C     0.86579   0.61063   0.81687   0.00000  Uiso   1.00
C3917  C     0.62813   0.55286   0.81304   0.00000  Uiso   1.00
H3918  H     0.58704   0.55243   0.95417   0.00000  Uiso   1.00
C3919  C     0.72443   0.56133   0.77239   0.00000  Uiso   1.00
O3920  O     0.86761   0.64036   0.81752   0.00000  Uiso   1.00
C3921  C     0.86215   0.54298   0.95526   0.00000  Uiso   1.00
O3922  O     0.82639   0.50943   0.95587   0.00000  Uiso   1.00
O3923  O     0.85959   0.52381   0.81480   0.00000  Uiso   1.00
C3924  C     0.83777   0.53322   0.96637   0.00000  Uiso   1.00
H3925  H     0.86160   0.71334   0.96836   0.00000  Uiso   1.00
O3926  O     0.71773   0.63976   0.95390   0.00000  Uiso   1.00
C3927  C     0.87412   0.56811   0.96135   0.00000  Uiso   1.00
C3928  C     0.75485   0.47716   0.83684   0.00000  Uiso   1.00
H3929  H     0.88122   0.69330   0.82420   0.00000  Uiso   1.00
C3930  C     0.72768   0.47678   0.82037   0.00000  Uiso   1.00
C3931  C     0.56394   0.60800   0.96869   0.00000  Uiso   1.00
C3932  C     0.75955   0.47528   0.96088   0.00000  Uiso   1.00
H3933  H     0.67366   0.48643   0.80654   0.00000  Uiso   1.00
C3934  C     0.78658   0.48182   0.95283   0.00000  Uiso   1.00
C3935  C     0.88542   0.56557   0.81683   0.00000  Uiso   1.00
H3936  H     0.88086   0.62282   0.93875   0.00000  Uiso   1.00
O3937  O     0.86007   0.49218   0.72966   0.00000  Uiso   1.00
H3938  H     0.88506   0.59087   0.90844   0.00000  Uiso   1.00
H3939  H     0.60570   0.47244   0.76695   0.00000  Uiso   1.00
H3940  H     0.84905   0.47223   0.81661   0.00000  Uiso   1.00
H3941  H     0.82069   0.51331   1.15805   0.00000  Uiso   1.00
O3942  O     0.72246   0.48197   0.99285   0.00000  Uiso   1.00
N3943  N     0.80351   0.62268   1.13315   0.00000  Uiso   1.00
H3944  H     0.88378   0.58759   1.19947   0.00000  Uiso   1.00
C3945  C     0.63284   0.51607   1.07820   0.00000  Uiso   1.00
H3946  H     0.64281   0.66321   1.00504   0.00000  Uiso   1.00
H3947  H     0.64234   0.63419   0.98330   0.00000  Uiso   1.00
H3948  H     0.83314   0.63466   0.99110   0.00000  Uiso   1.00
H3949  H     0.58953   0.70083   1.18940   0.00000  Uiso   1.00
C3950  C     0.87566   0.65569   1.07584   0.00000  Uiso   1.00
H3951  H     0.84872   0.47628   1.01283   0.00000  Uiso   1.00
C3952  C     0.87960   0.55974   1.10617   0.00000  Uiso   1.00
C3953  C     0.81552   0.66386   1.18370   0.00000  Uiso   1.00
H3954  H     0.69714   0.56823   1.11346   0.00000  Uiso   1.00
H3955  H     0.64152   0.61378   1.17753   0.00000  Uiso   1.00
O3956  O     0.77988   0.50516   1.09827   0.00000  Uiso   1.00
H3957  H     0.70576   0.64693   1.03679   0.00000  Uiso   1.00
H3958  H     0.87544   0.70734   1.01135   0.00000  Uiso   1.00
C3959  C     0.56170   0.57134   1.05602   0.00000  Uiso   1.00
O3960  O     0.65615   0.50861   1.12713   0.00000  Uiso   1.00
O3961  O     0.57685   0.51151   1.06867   0.00000  Uiso   1.00
C3962  C     0.83566   0.70292   1.14616   0.00000  Uiso   1.00
C3963  C     0.87674   0.51922   1.21276   0.00000  Uiso   1.00
H3964  H     0.70377   0.61145   0.99542   0.00000  Uiso   1.00
N3965  N     0.71209   0.52469   1.09685   0.00000  Uiso   1.00
C3966  C     0.73507   0.51944   1.19199   0.00000  Uiso   1.00
C3967  C     0.68432   0.60495   1.00540   0.00000  Uiso   1.00
C3968  C     0.61536   0.51128   1.10046   0.00000  Uiso   1.00
C3969  C     0.82282   0.63301   1.22012   0.00000  Uiso   1.00
C3970  C     0.82521   0.62759   1.12424   0.00000  Uiso   1.00
C3971  C     0.67382   0.67706   1.14304   0.00000  Uiso   1.00
C3972  C     0.82126   0.52969   1.08849   0.00000  Uiso   1.00
O3973  O     0.87587   0.61248   1.15057   0.00000  Uiso   1.00
O3974  O     0.58211   0.57531   1.03728   0.00000  Uiso   1.00
H3975  H     0.56007   0.59001   0.98115   0.00000  Uiso   1.00
O3976  O     0.80778   0.70048   1.14966   0.00000  Uiso   1.00
C3977  C     0.66790   0.69326   1.11877   0.00000  Uiso   1.00
H3978  H     0.84317   0.57029   1.04739   0.00000  Uiso   1.00
O3979  O     0.58936   0.58856   1.09465   0.00000  Uiso   1.00
C3980  C     0.56336   0.57854   1.08395   0.00000  Uiso   1.00
C3981  C     0.56879   0.70761   1.19793   0.00000  Uiso   1.00
C3982  C     0.77388   0.54523   1.17834   0.00000  Uiso   1.00
C3983  C     0.68383   0.58655   1.12110   0.00000  Uiso   1.00
C3984  C     0.83315   0.57598   0.99085   0.00000  Uiso   1.00
H3985  H     0.87254   0.62142   1.02703   0.00000  Uiso   1.00
C3986  C     0.78606   0.51910   0.98522   0.00000  Uiso   1.00
C3987  C     0.75935   0.51213   0.99386   0.00000  Uiso   1.00
C3988  C     0.85015   0.63704   0.97587   0.00000  Uiso   1.00
C3989  C     0.78423   0.71854   1.00549   0.00000  Uiso   1.00
C3990  C     0.57092   0.51034   1.11959   0.00000  Uiso   1.00
C3991  C     0.79798   0.68144   1.16909   0.00000  Uiso   1.00
C3992  C     0.72470   0.68215   0.97692   0.00000  Uiso   1.00
C3993  C     0.56598   0.68118   1.06672   0.00000  Uiso   1.00
C3994  C     0.85049   0.65105   1.08970   0.00000  Uiso   1.00
H3995  H     0.68492   0.58736   1.14364   0.00000  Uiso   1.00
H3996  H     0.73104   0.56452   1.19077   0.00000  Uiso   1.00
O3997  O     0.62144   0.49730   1.17363   0.00000  Uiso   1.00
C3998  C     0.62122   0.60014   1.02546   0.00000  Uiso   1.00
C3999  C     0.56356   0.65848   1.02207   0.00000  Uiso   1.00
H4000  H     0.78429   0.67987   1.05004   0.00000  Uiso   1.00
C4001  C     0.64437   0.61428   1.03432   0.00000  Uiso   1.00
H4002  H     0.81070   0.54776   1.09978   0.00000  Uiso   1.00
C4003  C     0.74507   0.53026   1.01347   0.00000  Uiso   1.00
H4004  H     0.77874   0.58628   1.16012   0.00000  Uiso   1.00
O4005  O     0.82654   0.66208   1.07959   0.00000  Uiso   1.00
C4006  C     0.66807   0.62826   1.01766   0.00000  Uiso   1.00
C4007  C     0.64985   0.61974   1.06214   0.00000  Uiso   1.00
C4008  C     0.63028   0.61165   1.08123   0.00000  Uiso   1.00
C4009  C     0.68258   0.64588   1.03924   0.00000  Uiso   1.00
H4010  H     0.63513   0.61971   1.10148   0.00000  Uiso   1.00
H4011  H     0.69682   0.59116   1.06778   0.00000  Uiso   1.00
C4012  C     0.69847   0.61211   1.07724   0.00000  Uiso   1.00
C4013  C     0.62617   0.50788   1.12630   0.00000  Uiso   1.00
C4014  C     0.58200   0.50532   1.14695   0.00000  Uiso   1.00
C4015  C     0.61030   0.50397   1.14939   0.00000  Uiso   1.00
H4016  H     0.70329   0.68528   0.97512   0.00000  Uiso   1.00
H4017  H     0.71827   0.61979   1.07248   0.00000  Uiso   1.00
C4018  C     0.76698   0.48017   1.09397   0.00000  Uiso   1.00
C4019  C     0.67727   0.63300   1.06788   0.00000  Uiso   1.00
C4020  C     0.69762   0.61221   1.10832   0.00000  Uiso   1.00
C4021  C     0.66591   0.50750   1.15319   0.00000  Uiso   1.00
C4022  C     0.77952   0.51456   1.17145   0.00000  Uiso   1.00
H4023  H     0.67312   0.66558   1.04000   0.00000  Uiso   1.00
C4024  C     0.67449   0.65246   1.09143   0.00000  Uiso   1.00
C4025  C     0.68340   0.63959   1.11553   0.00000  Uiso   1.00
C4026  C     0.72889   0.61065   1.12077   0.00000  Uiso   1.00
H4027  H     0.72970   0.61144   1.14321   0.00000  Uiso   1.00
O4028  O     0.67003   0.68728   1.16825   0.00000  Uiso   1.00
C4029  C     0.56447   0.49590   1.16689   0.00000  Uiso   1.00
C4030  C     0.64968   0.50160   1.17645   0.00000  Uiso   1.00
C4031  C     0.82885   0.67860   1.05707   0.00000  Uiso   1.00
H4032  H     0.60790   0.59905   1.16911   0.00000  Uiso   1.00
C4033  C     0.75884   0.65835   1.19095   0.00000  Uiso   1.00
H4034  H     0.86810   0.51704   1.00715   0.00000  Uiso   1.00
C4035  C     0.80512   0.64596   1.20317   0.00000  Uiso   1.00
C4036  C     0.66787   0.68001   1.09311   0.00000  Uiso   1.00
H4037  H     0.84013   0.58879   1.07817   0.00000  Uiso   1.00
H4038  H     0.66313   0.58201   1.11520   0.00000  Uiso   1.00
C4039  C     0.56387   0.63307   0.98118   0.00000  Uiso   1.00
H4040  H     0.73819   0.59012   1.11652   0.00000  Uiso   1.00
H4041  H     0.77413   0.55936   1.13475   0.00000  Uiso   1.00
C4042  C     0.74175   0.69946   0.99136   0.00000  Uiso   1.00
C4043  C     0.74315   0.54737   1.18073   0.00000  Uiso   1.00
C4044  C     0.62895   0.59479   1.17928   0.00000  Uiso   1.00
C4045  C     0.58902   0.69975   1.02590   0.00000  Uiso   1.00
H4046  H     0.68350   0.63655   1.15835   0.00000  Uiso   1.00
C4047  C     0.67910   0.65005   1.14035   0.00000  Uiso   1.00
H4048  H     0.74143   0.62827   1.11284   0.00000  Uiso   1.00
C4049  C     0.58798   0.51090   1.09549   0.00000  Uiso   1.00
C4050  C     0.84491   0.48403   1.06680   0.00000  Uiso   1.00
H4051  H     0.66115   0.69035   1.07422   0.00000  Uiso   1.00
C4052  C     0.83083   0.71490   1.01372   0.00000  Uiso   1.00
C4053  C     0.74780   0.48968   0.98302   0.00000  Uiso   1.00
C4054  C     0.85506   0.57868   1.06521   0.00000  Uiso   1.00
C4055  C     0.77727   0.64561   1.20959   0.00000  Uiso   1.00
H4056  H     0.68925   0.71024   1.02206   0.00000  Uiso   1.00
C4057  C     0.69041   0.50304   1.20654   0.00000  Uiso   1.00
C4058  C     0.75403   0.47217   1.17383   0.00000  Uiso   1.00
O4059  O     0.84392   0.66446   1.17900   0.00000  Uiso   1.00
C4060  C     0.85849   0.50807   1.06306   0.00000  Uiso   1.00
C4061  C     0.85341   0.68447   1.16062   0.00000  Uiso   1.00
C4062  C     0.69459   0.51271   1.15774   0.00000  Uiso   1.00
H4063  H     0.79035   0.54628   1.22203   0.00000  Uiso   1.00
H4064  H     0.81956   0.58943   1.00233   0.00000  Uiso   1.00
C4065  C     0.85849   0.58428   0.97809   0.00000  Uiso   1.00
C4066  C     0.85132   0.63422   1.11254   0.00000  Uiso   1.00
O4067  O     0.79945   0.54131   0.99685   0.00000  Uiso   1.00
H4068  H     0.68077   0.62965   1.19998   0.00000  Uiso   1.00
H4069  H     0.57566   0.61983   1.20830   0.00000  Uiso   1.00
H4070  H     0.81279   0.55917   1.19455   0.00000  Uiso   1.00
H4071  H     0.69102   0.58950   1.02034   0.00000  Uiso   1.00
C4072  C     0.80441   0.68912   1.04611   0.00000  Uiso   1.00
C4073  C     0.85554   0.70212   1.02243   0.00000  Uiso   1.00
C4074  C     0.69551   0.62717   1.21643   0.00000  Uiso   1.00
C4075  C     0.84846   0.53041   1.07731   0.00000  Uiso   1.00
C4076  C     0.70637   0.51172   1.18422   0.00000  Uiso   1.00
C4077  C     0.78367   0.56421   1.15543   0.00000  Uiso   1.00
C4078  C     0.87085   0.61312   0.98010   0.00000  Uiso   1.00
O4079  O     0.87873   0.67292   1.05481   0.00000  Uiso   1.00
H4080  H     0.85930   0.65818   0.97587   0.00000  Uiso   1.00
H4081  H     0.71665   0.70200   1.04476   0.00000  Uiso   1.00
H4082  H     0.86242   0.56967   1.11766   0.00000  Uiso   1.00
C4083  C     0.82012   0.48205   1.08064   0.00000  Uiso   1.00
C4084  C     0.80199   0.50089   1.16250   0.00000  Uiso   1.00
N4085  N     0.73443   0.70569   1.14217   0.00000  Uiso   1.00
C4086  C     0.75580   0.50024   1.17866   0.00000  Uiso   1.00
C4087  C     0.60772   0.59623   1.07488   0.00000  Uiso   1.00
C4088  C     0.72462   0.50469   1.09610   0.00000  Uiso   1.00
H4089  H     0.87410   0.53420   1.19592   0.00000  Uiso   1.00
H4090  H     0.61589   0.59588   1.00437   0.00000  Uiso   1.00
H4091  H     0.86936   0.59486   1.05810   0.00000  Uiso   1.00
O4092  O     0.73017   0.65315   1.19175   0.00000  Uiso   1.00
C4093  C     0.86932   0.55348   1.07745   0.00000  Uiso   1.00
C4094  C     0.75007   0.69225   1.15469   0.00000  Uiso   1.00
C4095  C     0.87604   0.62491   1.12498   0.00000  Uiso   1.00
C4096  C     0.79149   0.55667   1.20195   0.00000  Uiso   1.00
C4097  C     0.60773   0.71787   1.01345   0.00000  Uiso   1.00
O4098  O     0.58260   0.68084   0.98127   0.00000  Uiso   1.00
H4099  H     0.63725   0.58038   1.16452   0.00000  Uiso   1.00
C4100  C     0.80553   0.70587   1.02330   0.00000  Uiso   1.00
C4101  C     0.65561   0.64682   0.99517   0.00000  Uiso   1.00
C4102  C     0.76925   0.67625   1.17084   0.00000  Uiso   1.00
C4103  C     0.71042   0.71812   1.03102   0.00000  Uiso   1.00
H4104  H     0.63532   0.47685   1.02675   0.00000  Uiso   1.00
H4105  H     0.70798   0.51829   1.14023   0.00000  Uiso   1.00
C4106  C     0.67891   0.71576   1.16940   0.00000  Uiso   1.00
C4107  C     0.66213   0.49909   1.20284   0.00000  Uiso   1.00
N4108  N     0.73266   0.54330   1.02826   0.00000  Uiso   1.00
C4109  C     0.58192   0.70183   1.05467   0.00000  Uiso   1.00
N4110  N     0.64716   0.52113   1.05963   0.00000  Uiso   1.00
C4111  C     0.82449   0.54860   0.98599   0.00000  Uiso   1.00
O4112  O     0.66301   0.72169   1.12064   0.00000  Uiso   1.00
C4113  C     0.80637   0.50483   1.08901   0.00000  Uiso   1.00
H4114  H     0.67084   0.59521   0.98868   0.00000  Uiso   1.00
H4115  H     0.76212   0.72153   1.04447   0.00000  Uiso   1.00
C4116  C     0.88692   0.51114   1.01803   0.00000  Uiso   1.00
H4117  H     0.73675   0.54919   1.15753   0.00000  Uiso   1.00
C4118  C     0.57870   0.67908   1.00936   0.00000  Uiso   1.00
C4119  C     0.69516   0.70849   1.21549   0.00000  Uiso   1.00
C4120  C     0.88176   0.68752   1.15757   0.00000  Uiso   1.00
C4121  C     0.85451   0.68552   1.04537   0.00000  Uiso   1.00
H4122  H     0.67135   0.65578   0.98178   0.00000  Uiso   1.00
C4123  C     0.60333   0.58978   1.04690   0.00000  Uiso   1.00
C4124  C     0.77033   0.69585   0.99003   0.00000  Uiso   1.00
H4125  H     0.78591   0.57806   1.20530   0.00000  Uiso   1.00
H4126  H     0.80624   0.56302   1.15174   0.00000  Uiso   1.00
C4127  C     0.73914   0.47941   1.09690   0.00000  Uiso   1.00
C4128  C     0.56528   0.70500   1.10923   0.00000  Uiso   1.00
H4129  H     0.88679   0.54075   1.11701   0.00000  Uiso   1.00
H4130  H     0.58664   0.56871   1.19725   0.00000  Uiso   1.00
H4131  H     0.61238   0.54383   1.20533   0.00000  Uiso   1.00
C4132  C     0.62631   0.58654   1.20991   0.00000  Uiso   1.00
C4133  C     0.60400   0.56428   1.21268   0.00000  Uiso   1.00
C4134  C     0.72317   0.63498   1.21331   0.00000  Uiso   1.00
C4135  C     0.84729   0.72179   1.12797   0.00000  Uiso   1.00
H4136  H     0.88202   0.49943   1.20406   0.00000  Uiso   1.00
C4137  C     0.88564   0.51444   1.04932   0.00000  Uiso   1.00
H4138  H     0.66737   0.58019   1.20434   0.00000  Uiso   1.00
C4139  C     0.78259   0.67510   0.97487   0.00000  Uiso   1.00
C4140  C     0.55669   0.66038   1.04993   0.00000  Uiso   1.00
C4141  C     0.88595   0.61446   1.01015   0.00000  Uiso   1.00
O4142  O     0.55708   0.63436   1.00900   0.00000  Uiso   1.00
C4143  C     0.55777   0.70680   1.13694   0.00000  Uiso   1.00
H4144  H     0.64819   0.49423   1.22086   0.00000  Uiso   1.00
C4145  C     0.80174   0.47212   1.16021   0.00000  Uiso   1.00
H4146  H     0.57284   0.70979   1.22023   0.00000  Uiso   1.00
C4147  C     0.65106   0.91218   0.29336   0.00000  Uiso   1.00
N4148  N     0.64517   0.91600   0.26990   0.00000  Uiso   1.00
O4149  O     0.70109   0.93222   0.31030   0.00000  Uiso   1.00
C4150  C     0.72916   0.93367   0.31964   0.00000  Uiso   1.00
C4151  C     0.81575   0.82216   0.39861   0.00000  Uiso   1.00
H4152  H     0.82172   0.84933   0.36512   0.00000  Uiso   1.00
C4153  C     0.65807   0.90891   0.32084   0.00000  Uiso   1.00
C4154  C     0.68400   0.91849   0.32893   0.00000  Uiso   1.00
C4155  C     0.76398   0.77818   0.34290   0.00000  Uiso   1.00
H4156  H     0.63201   0.78538   0.38680   0.00000  Uiso   1.00
O4157  O     0.61564   0.88291   0.32950   0.00000  Uiso   1.00
C4158  C     0.64114   0.89423   0.33923   0.00000  Uiso   1.00
H4159  H     0.57482   0.93191   0.34059   0.00000  Uiso   1.00
C4160  C     0.83964   0.96266   0.22915   0.00000  Uiso   1.00
H4161  H     0.84443   0.73660   0.29611   0.00000  Uiso   1.00
O4162  O     0.79644   0.79646   0.43865   0.00000  Uiso   1.00
C4163  C     0.57553   0.94641   0.32385   0.00000  Uiso   1.00
C4164  C     0.81058   0.83167   0.37314   0.00000  Uiso   1.00
H4165  H     0.76231   0.86449   0.33605   0.00000  Uiso   1.00
C4166  C     0.63932   0.76982   0.42793   0.00000  Uiso   1.00
C4167  C     0.79750   0.93786   0.23921   0.00000  Uiso   1.00
H4168  H     0.87961   0.77629   0.44753   0.00000  Uiso   1.00
H4169  H     0.69297   0.76296   0.30596   0.00000  Uiso   1.00
C4170  C     0.83891   0.77898   0.23918   0.00000  Uiso   1.00
O4171  O     0.64325   0.74543   0.47169   0.00000  Uiso   1.00
C4172  C     0.77157   0.74777   0.33863   0.00000  Uiso   1.00
H4173  H     0.84966   0.94293   0.23541   0.00000  Uiso   1.00
C4174  C     0.80214   0.72854   0.46119   0.00000  Uiso   1.00
H4175  H     0.77208   0.76654   0.39851   0.00000  Uiso   1.00
C4176  C     0.71948   0.78330   0.42521   0.00000  Uiso   1.00
C4177  C     0.73051   0.92778   0.45360   0.00000  Uiso   1.00
H4178  H     0.72154   0.79426   0.34202   0.00000  Uiso   1.00
H4179  H     0.84208   0.92974   0.30221   0.00000  Uiso   1.00
C4180  C     0.78165   0.89546   0.26329   0.00000  Uiso   1.00
C4181  C     0.74876   0.73029   0.33625   0.00000  Uiso   1.00
H4182  H     0.70627   0.72769   0.30241   0.00000  Uiso   1.00
C4183  C     0.77083   0.79526   0.31689   0.00000  Uiso   1.00
C4184  C     0.82764   0.91839   0.36059   0.00000  Uiso   1.00
N4185  N     0.68662   0.89604   0.42584   0.00000  Uiso   1.00
C4186  C     0.56315   0.94115   0.29829   0.00000  Uiso   1.00
C4187  C     0.83286   0.83260   0.44336   0.00000  Uiso   1.00
H4188  H     0.63152   0.97045   0.38628   0.00000  Uiso   1.00
H4189  H     0.81552   0.75058   0.33690   0.00000  Uiso   1.00
N4190  N     0.72176   0.94387   0.23531   0.00000  Uiso   1.00
C4191  C     0.58266   0.77395   0.43713   0.00000  Uiso   1.00
C4192  C     0.82198   0.92526   0.30820   0.00000  Uiso   1.00
C4193  C     0.55765   0.89294   0.47123   0.00000  Uiso   1.00
H4194  H     0.61069   0.84017   0.41040   0.00000  Uiso   1.00
C4195  C     0.57290   0.79543   0.39353   0.00000  Uiso   1.00
H4196  H     0.82871   0.97060   0.36383   0.00000  Uiso   1.00
C4197  C     0.56156   0.77697   0.37088   0.00000  Uiso   1.00
C4198  C     0.71180   0.75004   0.30910   0.00000  Uiso   1.00
C4199  C     0.59478   0.78017   0.41089   0.00000  Uiso   1.00
C4200  C     0.79880   0.80143   0.41022   0.00000  Uiso   1.00
O4201  O     0.66733   0.77188   0.42425   0.00000  Uiso   1.00
H4202  H     0.84984   0.91667   0.36117   0.00000  Uiso   1.00
C4203  C     0.62225   0.77844   0.40767   0.00000  Uiso   1.00
C4204  C     0.79513   0.92097   0.26272   0.00000  Uiso   1.00
C4205  C     0.79102   0.81774   0.35724   0.00000  Uiso   1.00
C4206  C     0.62775   0.75632   0.45095   0.00000  Uiso   1.00
N4207  N     0.71623   0.80423   0.25988   0.00000  Uiso   1.00
H4208  H     0.62075   0.89870   0.44822   0.00000  Uiso   1.00
C4209  C     0.82799   0.96475   0.34228   0.00000  Uiso   1.00
H4210  H     0.61400   0.84815   0.45858   0.00000  Uiso   1.00
C4211  C     0.60508   0.90292   0.46555   0.00000  Uiso   1.00
C4212  C     0.69141   0.91407   0.35600   0.00000  Uiso   1.00
O4213  O     0.71791   0.92312   0.36648   0.00000  Uiso   1.00
C4214  C     0.58498   0.84276   0.33578   0.00000  Uiso   1.00
C4215  C     0.60465   0.86211   0.34676   0.00000  Uiso   1.00
C4216  C     0.84905   0.84789   0.46213   0.00000  Uiso   1.00
C4217  C     0.75745   0.84360   0.32835   0.00000  Uiso   1.00
C4218  C     0.64882   0.89145   0.36619   0.00000  Uiso   1.00
C4219  C     0.79771   0.73700   0.33797   0.00000  Uiso   1.00
H4220  H     0.81133   0.85494   0.31726   0.00000  Uiso   1.00
C4221  C     0.67416   0.90061   0.37435   0.00000  Uiso   1.00
C4222  C     0.68382   0.75954   0.44428   0.00000  Uiso   1.00
C4223  C     0.71567   0.81885   0.24118   0.00000  Uiso   1.00
C4224  C     0.72274   0.74727   0.33896   0.00000  Uiso   1.00
O4225  O     0.87329   0.82884   0.28486   0.00000  Uiso   1.00
C4226  C     0.61402   0.86003   0.37398   0.00000  Uiso   1.00
O4227  O     0.63365   0.87673   0.38556   0.00000  Uiso   1.00
C4228  C     0.81605   0.93617   0.33733   0.00000  Uiso   1.00
C4229  C     0.85825   0.80479   0.27731   0.00000  Uiso   1.00
C4230  C     0.68102   0.89824   0.40264   0.00000  Uiso   1.00
H4231  H     0.80016   0.83444   0.28938   0.00000  Uiso   1.00
H4232  H     0.74810   0.84671   0.30716   0.00000  Uiso   1.00
C4233  C     0.77369   0.72886   0.46761   0.00000  Uiso   1.00
O4234  O     0.86701   0.78100   0.32106   0.00000  Uiso   1.00
H4235  H     0.84937   0.82510   0.23985   0.00000  Uiso   1.00
C4236  C     0.78150   0.82361   0.32755   0.00000  Uiso   1.00
C4237  C     0.56603   0.78434   0.31636   0.00000  Uiso   1.00
C4238  C     0.77622   0.94033   0.30694   0.00000  Uiso   1.00
H4239  H     0.82513   0.81999   0.31603   0.00000  Uiso   1.00
C4240  C     0.57669   0.82116   0.35248   0.00000  Uiso   1.00
C4241  C     0.73288   0.77676   0.34889   0.00000  Uiso   1.00
H4242  H     0.73872   0.83722   0.34151   0.00000  Uiso   1.00
C4243  C     0.80589   0.83415   0.31109   0.00000  Uiso   1.00
C4244  C     0.78327   0.78497   0.39124   0.00000  Uiso   1.00
C4245  C     0.58474   0.82009   0.37897   0.00000  Uiso   1.00
H4246  H     0.58455   0.94810   0.43582   0.00000  Uiso   1.00
H4247  H     0.58165   0.84168   0.31326   0.00000  Uiso   1.00
H4248  H     0.70983   0.72632   0.37888   0.00000  Uiso   1.00
C4249  C     0.87138   0.86251   0.45172   0.00000  Uiso   1.00
O4250  O     0.75818   0.74759   0.45317   0.00000  Uiso   1.00
H4251  H     0.58158   0.76635   0.31850   0.00000  Uiso   1.00
H4252  H     0.72859   0.77653   0.37098   0.00000  Uiso   1.00
C4253  C     0.77940   0.79369   0.36524   0.00000  Uiso   1.00
H4254  H     0.78458   0.78220   0.30340   0.00000  Uiso   1.00
H4255  H     0.74192   0.94325   0.27853   0.00000  Uiso   1.00
H4256  H     0.77963   0.88445   0.28314   0.00000  Uiso   1.00
C4257  C     0.74851   0.93939   0.29977   0.00000  Uiso   1.00
C4258  C     0.73675   0.93061   0.34662   0.00000  Uiso   1.00
H4259  H     0.59065   0.90120   0.40996   0.00000  Uiso   1.00
O4260  O     0.83672   0.83487   0.41456   0.00000  Uiso   1.00
H4261  H     0.72927   0.75635   0.29391   0.00000  Uiso   1.00
C4262  C     0.81096   0.81558   0.45529   0.00000  Uiso   1.00
C4263  C     0.57704   0.90762   0.45169   0.00000  Uiso   1.00
H4264  H     0.57557   0.75773   0.36684   0.00000  Uiso   1.00
C4265  C     0.85680   0.78076   0.29484   0.00000  Uiso   1.00
C4266  C     0.55827   0.79697   0.34441   0.00000  Uiso   1.00
C4267  C     0.78492   0.93880   0.33464   0.00000  Uiso   1.00
C4268  C     0.59956   0.75930   0.45567   0.00000  Uiso   1.00
C4269  C     0.80136   0.93924   0.28814   0.00000  Uiso   1.00
C4270  C     0.81243   0.96509   0.24382   0.00000  Uiso   1.00
C4271  C     0.76762   0.88762   0.23923   0.00000  Uiso   1.00
C4272  C     0.83399   0.72770   0.23918   0.00000  Uiso   1.00
C4273  C     0.60294   0.83913   0.38918   0.00000  Uiso   1.00
H4274  H     0.57037   0.87353   0.42509   0.00000  Uiso   1.00
C4275  C     0.68846   0.95500   0.45956   0.00000  Uiso   1.00
C4276  C     0.84407   0.75614   0.28398   0.00000  Uiso   1.00
H4277  H     0.81997   0.90303   0.30830   0.00000  Uiso   1.00
C4278  C     0.76402   0.93218   0.35347   0.00000  Uiso   1.00
H4279  H     0.82034   0.92970   0.37904   0.00000  Uiso   1.00
H4280  H     0.65972   0.88327   0.46988   0.00000  Uiso   1.00
C4281  C     0.72913   0.74663   0.45809   0.00000  Uiso   1.00
H4282  H     0.77129   0.92686   0.37449   0.00000  Uiso   1.00
H4283  H     0.60321   0.94463   0.38039   0.00000  Uiso   1.00
H4284  H     0.82285   0.89587   0.36162   0.00000  Uiso   1.00
N4285  N     0.72457   0.80305   0.41206   0.00000  Uiso   1.00
C4286  C     0.84756   0.80399   0.25043   0.00000  Uiso   1.00
H4287  H     0.77563   0.75507   0.23295   0.00000  Uiso   1.00
N4288  N     0.74797   0.92109   0.43962   0.00000  Uiso   1.00
C4289  C     0.88574   0.80309   0.32619   0.00000  Uiso   1.00
C4290  C     0.71191   0.76149   0.44193   0.00000  Uiso   1.00
C4291  C     0.83762   0.75513   0.25632   0.00000  Uiso   1.00
H4292  H     0.75335   0.79951   0.30148   0.00000  Uiso   1.00
O4293  O     0.75343   0.86349   0.23981   0.00000  Uiso   1.00
H4294  H     0.81095   0.74056   0.44367   0.00000  Uiso   1.00
C4295  C     0.61798   0.96009   0.37237   0.00000  Uiso   1.00
H4296  H     0.56800   0.94856   0.46926   0.00000  Uiso   1.00
C4297  C     0.57434   0.89527   0.42313   0.00000  Uiso   1.00
H4298  H     0.62980   0.95116   0.35460   0.00000  Uiso   1.00
O4299  O     0.68980   0.96022   0.43088   0.00000  Uiso   1.00
C4300  C     0.70902   0.93834   0.47123   0.00000  Uiso   1.00
H4301  H     0.84949   0.96162   0.33267   0.00000  Uiso   1.00
C4302  C     0.56983   0.93871   0.44945   0.00000  Uiso   1.00
C4303  C     0.71497   0.96362   0.22386   0.00000  Uiso   1.00
H4304  H     0.57704   0.79918   0.30261   0.00000  Uiso   1.00
C4305  C     0.67238   0.74411   0.46652   0.00000  Uiso   1.00
H4306  H     0.66490   0.84844   0.45495   0.00000  Uiso   1.00
C4307  C     0.56354   0.96386   0.27862   0.00000  Uiso   1.00
C4308  C     0.81296   0.96724   0.27493   0.00000  Uiso   1.00
H4309  H     0.68638   0.75057   0.36276   0.00000  Uiso   1.00
C4310  C     0.58788   0.97060   0.33033   0.00000  Uiso   1.00
C4311  C     0.70210   0.73499   0.35849   0.00000  Uiso   1.00
H4312  H     0.83555   0.97039   0.28070   0.00000  Uiso   1.00
C4313  C     0.59339   0.84941   0.65526   0.00000  Uiso   1.00
C4314  C     0.61043   0.85299   0.63309   0.00000  Uiso   1.00
N4315  N     0.62609   0.85537   0.61444   0.00000  Uiso   1.00
O4316  O     0.81320   0.83411   0.52843   0.00000  Uiso   1.00
C4317  C     0.75366   0.91533   0.62315   0.00000  Uiso   1.00
H4318  H     0.78616   0.85803   0.56821   0.00000  Uiso   1.00
C4319  C     0.64131   0.84896   0.49394   0.00000  Uiso   1.00
C4320  C     0.55849   0.92193   0.66553   0.00000  Uiso   1.00
H4321  H     0.73324   0.95079   0.64200   0.00000  Uiso   1.00
C4322  C     0.79242   0.91131   0.59202   0.00000  Uiso   1.00
C4323  C     0.81116   0.87576   0.68353   0.00000  Uiso   1.00
H4324  H     0.59834   0.83481   0.48689   0.00000  Uiso   1.00
H4325  H     0.66952   0.85221   0.54957   0.00000  Uiso   1.00
H4326  H     0.75885   0.93207   0.66213   0.00000  Uiso   1.00
N4327  N     0.76617   0.80100   0.63826   0.00000  Uiso   1.00
C4328  C     0.84251   0.84710   0.48968   0.00000  Uiso   1.00
C4329  C     0.74540   0.92401   0.59357   0.00000  Uiso   1.00
C4330  C     0.55576   0.86889   0.51445   0.00000  Uiso   1.00
H4331  H     0.77599   0.87792   0.61803   0.00000  Uiso   1.00
C4332  C     0.57055   0.88007   0.49278   0.00000  Uiso   1.00
C4333  C     0.59953   0.94317   0.68590   0.00000  Uiso   1.00
C4334  C     0.83477   0.91089   0.56504   0.00000  Uiso   1.00
O4335  O     0.76979   0.84866   0.69283   0.00000  Uiso   1.00
C4336  C     0.76205   0.91628   0.54899   0.00000  Uiso   1.00
C4337  C     0.61536   0.96108   0.70498   0.00000  Uiso   1.00
C4338  C     0.65553   0.86929   0.54247   0.00000  Uiso   1.00
H4339  H     0.62382   0.94932   0.56140   0.00000  Uiso   1.00
C4340  C     0.79223   0.85425   0.67607   0.00000  Uiso   1.00
C4341  C     0.57415   0.91813   0.64132   0.00000  Uiso   1.00
H4342  H     0.60102   0.92676   0.52410   0.00000  Uiso   1.00
C4343  C     0.69032   0.72681   0.48230   0.00000  Uiso   1.00
C4344  C     0.60284   0.85821   0.68044   0.00000  Uiso   1.00
C4345  C     0.61646   0.91028   0.53100   0.00000  Uiso   1.00
C4346  C     0.78146   0.81696   0.64486   0.00000  Uiso   1.00
H4347  H     0.76901   0.95498   0.63582   0.00000  Uiso   1.00
C4348  C     0.64953   0.88975   0.56292   0.00000  Uiso   1.00
C4349  C     0.76782   0.91812   0.57596   0.00000  Uiso   1.00
C4350  C     0.85180   0.90441   0.67434   0.00000  Uiso   1.00
C4351  C     0.77990   0.90020   0.61987   0.00000  Uiso   1.00
H4352  H     0.64742   0.80766   0.48158   0.00000  Uiso   1.00
C4353  C     0.66553   0.93127   0.65565   0.00000  Uiso   1.00
C4354  C     0.81884   0.83357   0.49971   0.00000  Uiso   1.00
C4355  C     0.82132   0.85920   0.54091   0.00000  Uiso   1.00
C4356  C     0.86867   0.76778   0.66295   0.00000  Uiso   1.00
H4357  H     0.66858   0.81832   0.50905   0.00000  Uiso   1.00
H4358  H     0.79739   0.95686   0.59500   0.00000  Uiso   1.00
C4359  C     0.80449   0.81670   0.48283   0.00000  Uiso   1.00
C4360  C     0.61940   0.88816   0.51312   0.00000  Uiso   1.00
H4361  H     0.60937   0.92146   0.47668   0.00000  Uiso   1.00
C4362  C     0.84355   0.87451   0.53098   0.00000  Uiso   1.00
C4363  C     0.60235   0.88204   0.48810   0.00000  Uiso   1.00
C4364  C     0.87178   0.85096   0.61499   0.00000  Uiso   1.00
H4365  H     0.87050   0.74483   0.50665   0.00000  Uiso   1.00
H4366  H     0.63261   0.81136   0.51569   0.00000  Uiso   1.00
C4367  C     0.76187   0.87063   0.70896   0.00000  Uiso   1.00
H4368  H     0.73293   0.87418   0.62052   0.00000  Uiso   1.00
H4369  H     0.66331   0.91062   0.66345   0.00000  Uiso   1.00
C4370  C     0.60195   0.92516   0.64071   0.00000  Uiso   1.00
C4371  C     0.66811   0.96207   0.50292   0.00000  Uiso   1.00
C4372  C     0.84112   0.86312   0.64707   0.00000  Uiso   1.00
C4373  C     0.86304   0.81374   0.58257   0.00000  Uiso   1.00
H4374  H     0.81139   0.95128   0.53859   0.00000  Uiso   1.00
C4375  C     0.73374   0.89314   0.63411   0.00000  Uiso   1.00
H4376  H     0.86481   0.93263   0.60565   0.00000  Uiso   1.00
C4377  C     0.70942   0.93410   0.49953   0.00000  Uiso   1.00
C4378  C     0.64428   0.96127   0.69402   0.00000  Uiso   1.00
H4379  H     0.68632   0.86095   0.48484   0.00000  Uiso   1.00
C4380  C     0.81289   0.89415   0.57406   0.00000  Uiso   1.00
H4381  H     0.66589   0.92959   0.63296   0.00000  Uiso   1.00
C4382  C     0.86647   0.74167   0.48434   0.00000  Uiso   1.00
C4383  C     0.88235   0.79640   0.52360   0.00000  Uiso   1.00
C4384  C     0.83490   0.88038   0.66913   0.00000  Uiso   1.00
C4385  C     0.85398   0.83041   0.60471   0.00000  Uiso   1.00
H4386  H     0.81561   0.93905   0.61892   0.00000  Uiso   1.00
H4387  H     0.68565   0.93858   0.66220   0.00000  Uiso   1.00
H4388  H     0.79307   0.90397   0.63879   0.00000  Uiso   1.00
C4389  C     0.71536   0.93609   0.55578   0.00000  Uiso   1.00
N4390  N     0.86639   0.92403   0.67890   0.00000  Uiso   1.00
C4391  C     0.64395   0.97061   0.51807   0.00000  Uiso   1.00
C4392  C     0.84950   0.90017   0.54283   0.00000  Uiso   1.00
H4393  H     0.65482   0.94699   0.70687   0.00000  Uiso   1.00
C4394  C     0.63956   0.86864   0.51890   0.00000  Uiso   1.00
H4395  H     0.56844   0.86005   0.53113   0.00000  Uiso   1.00
H4396  H     0.85332   0.75869   0.47702   0.00000  Uiso   1.00
C4397  C     0.80906   0.93794   0.59671   0.00000  Uiso   1.00
C4398  C     0.78324   0.79934   0.49385   0.00000  Uiso   1.00
H4399  H     0.86779   0.91125   0.53381   0.00000  Uiso   1.00
H4400  H     0.56025   0.74412   0.68867   0.00000  Uiso   1.00
C4401  C     0.79811   0.83867   0.65323   0.00000  Uiso   1.00
C4402  C     0.72003   0.93552   0.58410   0.00000  Uiso   1.00
C4403  C     0.82216   0.84329   0.63833   0.00000  Uiso   1.00
O4404  O     0.86576   0.86931   0.63465   0.00000  Uiso   1.00
C4405  C     0.64324   0.95261   0.66472   0.00000  Uiso   1.00
N4406  N     0.76755   0.78401   0.50152   0.00000  Uiso   1.00
H4407  H     0.61058   0.91991   0.62162   0.00000  Uiso   1.00
O4408  O     0.62665   0.93316   0.57334   0.00000  Uiso   1.00
O4409  O     0.63011   0.86934   0.68343   0.00000  Uiso   1.00
C4410  C     0.83442   0.93924   0.57692   0.00000  Uiso   1.00
C4411  C     0.83758   0.76219   0.65520   0.00000  Uiso   1.00
O4412  O     0.82739   0.82674   0.61584   0.00000  Uiso   1.00
C4413  C     0.75295   0.94038   0.64138   0.00000  Uiso   1.00
C4414  C     0.80701   0.86874   0.56291   0.00000  Uiso   1.00
C4415  C     0.87642   0.74916   0.68836   0.00000  Uiso   1.00
H4416  H     0.71172   0.90064   0.63577   0.00000  Uiso   1.00
C4417  C     0.63111   0.91132   0.55556   0.00000  Uiso   1.00
H4418  H     0.86016   0.96747   0.59774   0.00000  Uiso   1.00
C4419  C     0.61223   0.85284   0.47994   0.00000  Uiso   1.00
H4420  H     0.74108   0.88706   0.65555   0.00000  Uiso   1.00
C4421  C     0.61498   0.93850   0.66261   0.00000  Uiso   1.00
H4422  H     0.65318   0.87743   0.59974   0.00000  Uiso   1.00
C4423  C     0.71839   0.72910   0.47865   0.00000  Uiso   1.00
H4424  H     0.57992   0.73123   0.59476   0.00000  Uiso   1.00
C4425  C     0.73677   0.92388   0.53770   0.00000  Uiso   1.00
H4426  H     0.70250   0.93534   0.59907   0.00000  Uiso   1.00
O4427  O     0.69016   0.94687   0.54548   0.00000  Uiso   1.00
C4428  C     0.68879   0.94681   0.51656   0.00000  Uiso   1.00
C4429  C     0.64756   0.81940   0.50130   0.00000  Uiso   1.00
O4430  O     0.66514   0.88687   0.58713   0.00000  Uiso   1.00
O4431  O     0.80633   0.89431   0.70451   0.00000  Uiso   1.00
O4432  O     0.73211   0.92081   0.51062   0.00000  Uiso   1.00
H4433  H     0.86032   0.81247   0.66796   0.00000  Uiso   1.00
C4434  C     0.57181   0.93536   0.68779   0.00000  Uiso   1.00
H4435  H     0.87456   0.81553   0.51484   0.00000  Uiso   1.00
H4436  H     0.77721   0.91071   0.53360   0.00000  Uiso   1.00
H4437  H     0.85287   0.79431   0.57638   0.00000  Uiso   1.00
C4438  C     0.87802   0.79726   0.67102   0.00000  Uiso   1.00
C4439  C     0.86203   0.94700   0.58911   0.00000  Uiso   1.00
O4440  O     0.85849   0.86522   0.50758   0.00000  Uiso   1.00
C4441  C     0.55903   0.84863   0.70026   0.00000  Uiso   1.00
H4442  H     0.68024   0.88197   0.70005   0.00000  Uiso   1.00
H4443  H     0.82573   0.77663   0.64262   0.00000  Uiso   1.00
C4444  C     0.88796   0.81595   0.57053   0.00000  Uiso   1.00
H4445  H     0.88037   0.76691   0.61987   0.00000  Uiso   1.00
H4446  H     0.86263   0.78575   0.52791   0.00000  Uiso   1.00
H4447  H     0.84458   0.96648   0.54048   0.00000  Uiso   1.00
C4448  C     0.56717   0.83832   0.65205   0.00000  Uiso   1.00
H4449  H     0.87921   0.94541   0.57557   0.00000  Uiso   1.00
C4450  C     0.82617   0.95931   0.55237   0.00000  Uiso   1.00
C4451  C     0.58497   0.85826   0.70408   0.00000  Uiso   1.00
C4452  C     0.77967   0.89396   0.71479   0.00000  Uiso   1.00
H4453  H     0.58910   0.75719   0.47717   0.00000  Uiso   1.00
C4454  C     0.66575   0.88166   0.71647   0.00000  Uiso   1.00
H4455  H     0.82564   0.75968   0.67342   0.00000  Uiso   1.00
C4456  C     0.66770   0.96659   0.47535   0.00000  Uiso   1.00
H4457  H     0.83507   0.74315   0.64365   0.00000  Uiso   1.00
O4458  O     0.56359   0.90922   0.61591   0.00000  Uiso   1.00
C4459  C     0.86999   0.81278   0.71861   0.00000  Uiso   1.00
O4460  O     0.56092   0.82415   0.62770   0.00000  Uiso   1.00
H4461  H     0.55855   0.93827   0.70605   0.00000  Uiso   1.00
C4462  C     0.87169   0.72224   0.69325   0.00000  Uiso   1.00
H4463  H     0.83596   0.72781   0.54086   0.00000  Uiso   1.00
C4464  C     0.63867   0.87462   0.71010   0.00000  Uiso   1.00
H4465  H     0.88751   0.73537   0.63586   0.00000  Uiso   1.00
H4466  H     0.71723   0.96175   0.71497   0.00000  Uiso   1.00
C4467  C     0.88754   0.75811   0.63921   0.00000  Uiso   1.00
C4468  C     0.66298   0.86129   0.47474   0.00000  Uiso   1.00
C4469  C     0.73598   0.87024   0.72197   0.00000  Uiso   1.00
H4470  H     0.55804   0.80635   0.47709   0.00000  Uiso   1.00
H4471  H     0.55868   0.77755   0.59623   0.00000  Uiso   1.00
H4472  H     0.72061   0.88563   0.86969   0.00000  Uiso   1.00
C4473  C     0.64848   0.77850   0.93368   0.00000  Uiso   1.00
H4474  H     0.71172   0.86462   0.77958   0.00000  Uiso   1.00
H4475  H     0.55941   0.89115   0.79510   0.00000  Uiso   1.00
O4476  O     0.59234   0.86783   0.72982   0.00000  Uiso   1.00
C4477  C     0.83726   0.90612   0.93034   0.00000  Uiso   1.00
H4478  H     0.66810   0.73952   0.93499   0.00000  Uiso   1.00
C4479  C     0.78961   0.89322   0.80198   0.00000  Uiso   1.00
C4480  C     0.76859   0.80950   0.78596   0.00000  Uiso   1.00
C4481  C     0.60023   0.76279   0.81046   0.00000  Uiso   1.00
O4482  O     0.62131   0.77855   0.81964   0.00000  Uiso   1.00
C4483  C     0.87025   0.84285   0.80380   0.00000  Uiso   1.00
H4484  H     0.63315   0.93646   0.73908   0.00000  Uiso   1.00
O4485  O     0.74220   0.80737   0.82649   0.00000  Uiso   1.00
C4486  C     0.58054   0.92818   0.94019   0.00000  Uiso   1.00
H4487  H     0.82703   0.86311   0.93770   0.00000  Uiso   1.00
C4488  C     0.59374   0.76564   0.78191   0.00000  Uiso   1.00
C4489  C     0.79137   0.97061   0.93283   0.00000  Uiso   1.00
O4490  O     0.80107   0.80837   0.74953   0.00000  Uiso   1.00
H4491  H     0.81930   0.89739   0.89125   0.00000  Uiso   1.00
C4492  C     0.63001   0.86761   0.75890   0.00000  Uiso   1.00
C4493  C     0.57702   0.88275   0.90737   0.00000  Uiso   1.00
C4494  C     0.61018   0.75899   0.86487   0.00000  Uiso   1.00
O4495  O     0.75220   0.86548   0.83697   0.00000  Uiso   1.00
C4496  C     0.69809   0.85031   0.88679   0.00000  Uiso   1.00
H4497  H     0.72640   0.96310   0.79169   0.00000  Uiso   1.00
H4498  H     0.56674   0.74459   0.93280   0.00000  Uiso   1.00
C4499  C     0.69485   0.82168   0.88250   0.00000  Uiso   1.00
H4500  H     0.72543   0.85062   0.72373   0.00000  Uiso   1.00
C4501  C     0.60665   0.96771   0.78277   0.00000  Uiso   1.00
H4502  H     0.65914   0.91726   0.79774   0.00000  Uiso   1.00
N4503  N     0.79590   0.91592   0.80460   0.00000  Uiso   1.00
H4504  H     0.65624   0.81006   0.84592   0.00000  Uiso   1.00
H4505  H     0.85152   0.87979   0.89385   0.00000  Uiso   1.00
C4506  C     0.69844   0.92608   0.75349   0.00000  Uiso   1.00
C4507  C     0.75722   0.82334   0.80846   0.00000  Uiso   1.00
C4508  C     0.67671   0.86210   0.90555   0.00000  Uiso   1.00
H4509  H     0.86212   0.82736   0.78760   0.00000  Uiso   1.00
O4510  O     0.59112   0.73982   0.85518   0.00000  Uiso   1.00
C4511  C     0.67185   0.84723   0.80481   0.00000  Uiso   1.00
C4512  C     0.66940   0.81257   0.90102   0.00000  Uiso   1.00
C4513  C     0.62910   0.79400   0.95313   0.00000  Uiso   1.00
C4514  C     0.57646   0.86025   0.88910   0.00000  Uiso   1.00
C4515  C     0.61593   0.75795   0.89233   0.00000  Uiso   1.00
C4516  C     0.60695   0.78499   0.76548   0.00000  Uiso   1.00
H4517  H     0.65845   0.75114   0.96810   0.00000  Uiso   1.00
C4518  C     0.86471   0.90609   0.94336   0.00000  Uiso   1.00
C4519  C     0.62529   0.77776   0.84713   0.00000  Uiso   1.00
H4520  H     0.58893   0.86321   0.81898   0.00000  Uiso   1.00
C4521  C     0.72899   0.82199   0.84800   0.00000  Uiso   1.00
C4522  C     0.71103   0.80734   0.86488   0.00000  Uiso   1.00
H4523  H     0.64511   0.89118   0.90969   0.00000  Uiso   1.00
C4524  C     0.72705   0.89212   0.73855   0.00000  Uiso   1.00
H4525  H     0.85627   0.80479   0.84373   0.00000  Uiso   1.00
C4526  C     0.56166   0.83874   0.84228   0.00000  Uiso   1.00
N4527  N     0.75617   0.75874   0.77595   0.00000  Uiso   1.00
H4528  H     0.69031   0.77724   0.91621   0.00000  Uiso   1.00
C4529  C     0.76323   0.85187   0.81447   0.00000  Uiso   1.00
H4530  H     0.84857   0.91715   0.88695   0.00000  Uiso   1.00
C4531  C     0.78344   0.86513   0.79863   0.00000  Uiso   1.00
C4532  C     0.67090   0.87538   0.79235   0.00000  Uiso   1.00
C4533  C     0.71652   0.86381   0.86867   0.00000  Uiso   1.00
H4534  H     0.68592   0.93529   0.76860   0.00000  Uiso   1.00
C4535  C     0.87835   0.97010   0.72281   0.00000  Uiso   1.00
C4536  C     0.80184   0.94525   0.92386   0.00000  Uiso   1.00
H4537  H     0.67610   0.90857   0.89932   0.00000  Uiso   1.00
C4538  C     0.66300   0.89011   0.89629   0.00000  Uiso   1.00
H4539  H     0.88029   0.91222   0.92801   0.00000  Uiso   1.00
C4540  C     0.64423   0.79534   0.85916   0.00000  Uiso   1.00
C4541  C     0.56271   0.73025   0.81497   0.00000  Uiso   1.00
N4542  N     0.85350   0.93737   0.81297   0.00000  Uiso   1.00
H4543  H     0.70856   0.78540   0.86283   0.00000  Uiso   1.00
C4544  C     0.73353   0.85024   0.85127   0.00000  Uiso   1.00
N4545  N     0.61930   0.79887   0.75191   0.00000  Uiso   1.00
H4546  H     0.65167   0.83843   0.81036   0.00000  Uiso   1.00
H4547  H     0.68372   0.84602   0.82475   0.00000  Uiso   1.00
C4548  C     0.73766   0.94620   0.78124   0.00000  Uiso   1.00
C4549  C     0.76220   0.78197   0.78084   0.00000  Uiso   1.00
C4550  C     0.64806   0.79557   0.88667   0.00000  Uiso   1.00
C4551  C     0.62019   0.86906   0.73311   0.00000  Uiso   1.00
H4552  H     0.64384   0.84118   0.92600   0.00000  Uiso   1.00
C4553  C     0.58711   0.95203   0.95485   0.00000  Uiso   1.00
H4554  H     0.79691   0.88102   0.92924   0.00000  Uiso   1.00
C4555  C     0.58521   0.74362   0.82656   0.00000  Uiso   1.00
C4556  C     0.78931   0.82432   0.77109   0.00000  Uiso   1.00
H4557  H     0.70729   0.88486   0.93041   0.00000  Uiso   1.00
C4558  C     0.61598   0.95168   0.73583   0.00000  Uiso   1.00
C4559  C     0.63551   0.77667   0.90408   0.00000  Uiso   1.00
C4560  C     0.85382   0.94651   0.79119   0.00000  Uiso   1.00
H4561  H     0.69910   0.84939   0.94647   0.00000  Uiso   1.00
C4562  C     0.70020   0.89528   0.75499   0.00000  Uiso   1.00
H4563  H     0.86817   0.88610   0.95090   0.00000  Uiso   1.00
H4564  H     0.64041   0.84827   0.89166   0.00000  Uiso   1.00
C4565  C     0.65540   0.83996   0.90746   0.00000  Uiso   1.00
O4566  O     0.59302   0.88096   0.93193   0.00000  Uiso   1.00
O4567  O     0.81847   0.86525   0.76218   0.00000  Uiso   1.00
H4568  H     0.63661   0.89536   0.81332   0.00000  Uiso   1.00
H4569  H     0.58502   0.82807   0.80579   0.00000  Uiso   1.00
C4570  C     0.81657   0.88289   0.94096   0.00000  Uiso   1.00
C4571  C     0.67476   0.88276   0.74227   0.00000  Uiso   1.00
H4572  H     0.61623   0.86026   0.77559   0.00000  Uiso   1.00
C4573  C     0.76978   0.91661   0.72979   0.00000  Uiso   1.00
C4574  C     0.69166   0.86763   0.93324   0.00000  Uiso   1.00
H4575  H     0.68767   0.93276   0.73425   0.00000  Uiso   1.00
C4576  C     0.67566   0.79260   0.92435   0.00000  Uiso   1.00
C4577  C     0.79781   0.85150   0.77786   0.00000  Uiso   1.00
O4578  O     0.57144   0.74794   0.74210   0.00000  Uiso   1.00
H4579  H     0.67704   0.87565   0.94845   0.00000  Uiso   1.00
C4580  C     0.84457   0.80365   0.72763   0.00000  Uiso   1.00
C4581  C     0.58651   0.84068   0.82405   0.00000  Uiso   1.00
H4582  H     0.85461   0.85177   0.81674   0.00000  Uiso   1.00
C4583  C     0.86291   0.92810   0.96804   0.00000  Uiso   1.00
C4584  C     0.72543   0.96502   0.73540   0.00000  Uiso   1.00
H4585  H     0.60624   0.74193   0.90579   0.00000  Uiso   1.00
H4586  H     0.66847   0.90172   0.82983   0.00000  Uiso   1.00
C4587  C     0.82610   0.82012   0.74141   0.00000  Uiso   1.00
C4588  C     0.65910   0.89902   0.80939   0.00000  Uiso   1.00
C4589  C     0.85459   0.95914   0.76431   0.00000  Uiso   1.00
H4590  H     0.65453   0.88982   0.87390   0.00000  Uiso   1.00
C4591  C     0.65195   0.74972   0.94573   0.00000  Uiso   1.00
H4592  H     0.61841   0.80992   0.94247   0.00000  Uiso   1.00
H4593  H     0.73789   0.92961   0.79701   0.00000  Uiso   1.00
C4594  C     0.65709   0.87452   0.76391   0.00000  Uiso   1.00
H4595  H     0.87062   0.78722   0.81383   0.00000  Uiso   1.00
C4596  C     0.83857   0.94731   0.95645   0.00000  Uiso   1.00
H4597  H     0.86516   0.87976   0.73786   0.00000  Uiso   1.00
C4598  C     0.82505   0.93416   0.93494   0.00000  Uiso   1.00
C4599  C     0.59453   0.90529   0.94706   0.00000  Uiso   1.00
H4600  H     0.61464   0.77899   0.96090   0.00000  Uiso   1.00
H4601  H     0.78929   0.93343   0.91006   0.00000  Uiso   1.00
C4602  C     0.87710   0.95449   0.74705   0.00000  Uiso   1.00
H4603  H     0.87884   0.86101   0.79386   0.00000  Uiso   1.00
H4604  H     0.55869   0.79206   0.84120   0.00000  Uiso   1.00
H4605  H     0.59707   0.94037   0.74072   0.00000  Uiso   1.00
H4606  H     0.58311   0.84098   0.89798   0.00000  Uiso   1.00
H4607  H     0.68558   0.80351   0.94106   0.00000  Uiso   1.00
C4608  C     0.83373   0.84780   0.74682   0.00000  Uiso   1.00
H4609  H     0.60650   0.83494   0.83382   0.00000  Uiso   1.00
C4610  C     0.72579   0.93940   0.75333   0.00000  Uiso   1.00
H4611  H     0.80933   0.88546   0.96254   0.00000  Uiso   1.00
H4612  H     0.78119   0.93472   0.73381   0.00000  Uiso   1.00
C4613  C     0.83986   0.90019   0.89894   0.00000  Uiso   1.00
H4614  H     0.76001   0.95078   0.78030   0.00000  Uiso   1.00
H4615  H     0.71015   0.89609   0.79810   0.00000  Uiso   1.00
C4616  C     0.69902   0.88379   0.78357   0.00000  Uiso   1.00
C4617  C     0.74272   0.91695   0.73902   0.00000  Uiso   1.00
H4618  H     0.68140   0.83033   0.79342   0.00000  Uiso   1.00
C4619  C     0.56145   0.86076   0.86407   0.00000  Uiso   1.00
H4620  H     0.62122   0.95609   0.79558   0.00000  Uiso   1.00
O4621  O     0.55915   0.92812   0.92005   0.00000  Uiso   1.00
C4622  C     0.85844   0.85839   0.73496   0.00000  Uiso   1.00
C4623  C     0.55762   0.80954   0.85558   0.00000  Uiso   1.00
C4624  C     0.57372   0.74964   0.77032   0.00000  Uiso   1.00
C4625  C     0.55940   0.90625   0.90158   0.00000  Uiso   1.00
H4626  H     0.88110   0.85798   0.85788   0.00000  Uiso   1.00
C4627  C     0.55581   0.73277   0.78711   0.00000  Uiso   1.00
H4628  H     0.55547   0.77853   0.91624   0.00000  Uiso   1.00
C4629  C     0.88855   0.82702   0.82426   0.00000  Uiso   1.00
H4630  H     0.79329   0.73988   0.96555   0.00000  Uiso   1.00
C4631  C     0.87714   0.84018   0.72356   0.00000  Uiso   1.00
H4632  H     0.57458   0.80517   0.86976   0.00000  Uiso   1.00
H4633  H     0.57203   0.96281   0.86277   0.00000  Uiso   1.00
H4634  H     0.84490   0.73422   0.94585   0.00000  Uiso   1.00
H4635  H     0.63265   0.73782   0.94402   0.00000  Uiso   1.00
C4636  C     0.87609   0.79949   0.83246   0.00000  Uiso   1.00
C4637  C     0.84092   0.72237   0.96558   0.00000  Uiso   1.00
H4638  H     0.58613   0.95595   0.78277   0.00000  Uiso   1.00
H4639  H     0.59762   0.97038   0.84330   0.00000  Uiso   1.00
H4640  H     0.64131   0.80188   0.96993   0.00000  Uiso   1.00
H4641  H     0.83927   0.78204   0.72288   0.00000  Uiso   1.00
C4642  C     0.58416   0.74857   1.14003   0.00000  Uiso   1.00
C4643  C     0.57470   0.79691   1.00888   0.00000  Uiso   1.00
H4644  H     0.86988   0.75921   0.99579   0.00000  Uiso   1.00
H4645  H     0.83764   0.96360   1.20739   0.00000  Uiso   1.00
C4646  C     0.86771   0.89288   1.16035   0.00000  Uiso   1.00
H4647  H     0.78004   0.86757   0.99885   0.00000  Uiso   1.00
C4648  C     0.86049   0.87895   1.13587   0.00000  Uiso   1.00
N4649  N     0.83020   0.92314   1.18151   0.00000  Uiso   1.00
H4650  H     0.85663   0.83353   1.04631   0.00000  Uiso   1.00
C4651  C     0.60530   0.95274   0.97712   0.00000  Uiso   1.00
H4652  H     0.76223   0.75336   1.02741   0.00000  Uiso   1.00
H4653  H     0.72104   0.95466   1.03481   0.00000  Uiso   1.00
N4654  N     0.65984   0.76125   1.04054   0.00000  Uiso   1.00
C4655  C     0.58796   0.77312   1.16164   0.00000  Uiso   1.00
C4656  C     0.88262   0.90464   1.03720   0.00000  Uiso   1.00
C4657  C     0.74784   0.78775   1.17875   0.00000  Uiso   1.00
H4658  H     0.75861   0.84391   1.01466   0.00000  Uiso   1.00
C4659  C     0.79591   0.79850   1.18436   0.00000  Uiso   1.00
H4660  H     0.85417   0.89278   0.99464   0.00000  Uiso   1.00
C4661  C     0.57755   0.92978   1.12884   0.00000  Uiso   1.00
N4662  N     0.62356   0.73236   1.00344   0.00000  Uiso   1.00
C4663  C     0.72775   0.89778   1.05516   0.00000  Uiso   1.00
H4664  H     0.77765   0.79944   1.01776   0.00000  Uiso   1.00
H4665  H     0.72151   0.76645   1.00357   0.00000  Uiso   1.00
H4666  H     0.66008   0.91044   1.14936   0.00000  Uiso   1.00
O4667  O     0.75906   0.89517   1.18937   0.00000  Uiso   1.00
H4668  H     0.84031   0.97136   1.16382   0.00000  Uiso   1.00
C4669  C     0.64830   0.78194   1.04310   0.00000  Uiso   1.00
C4670  C     0.84825   0.85509   1.08540   0.00000  Uiso   1.00
C4671  C     0.79860   0.74144   0.98675   0.00000  Uiso   1.00
H4672  H     0.78025   0.80821   1.05361   0.00000  Uiso   1.00
C4673  C     0.77094   0.87520   1.04513   0.00000  Uiso   1.00
C4674  C     0.60450   0.96410   1.10481   0.00000  Uiso   1.00
H4675  H     0.86116   0.77417   1.09476   0.00000  Uiso   1.00
C4676  C     0.80138   0.83689   1.02440   0.00000  Uiso   1.00
C4677  C     0.61025   0.81093   1.03772   0.00000  Uiso   1.00
C4678  C     0.84663   0.76339   0.99681   0.00000  Uiso   1.00
C4679  C     0.70008   0.89914   1.06114   0.00000  Uiso   1.00
C4680  C     0.81522   0.85007   1.05007   0.00000  Uiso   1.00
C4681  C     0.59655   0.83559   1.04364   0.00000  Uiso   1.00
C4682  C     0.63608   0.80719   1.04653   0.00000  Uiso   1.00
C4683  C     0.61112   0.85707   1.05475   0.00000  Uiso   1.00
H4684  H     0.76063   0.92552   1.09163   0.00000  Uiso   1.00
C4685  C     0.56209   0.73491   1.18208   0.00000  Uiso   1.00
H4686  H     0.63347   0.90206   1.12502   0.00000  Uiso   1.00
C4687  C     0.58359   0.75679   1.18749   0.00000  Uiso   1.00
C4688  C     0.73788   0.87522   1.19260   0.00000  Uiso   1.00
C4689  C     0.72085   0.86972   1.17134   0.00000  Uiso   1.00
H4690  H     0.73392   0.94556   1.08202   0.00000  Uiso   1.00
C4691  C     0.65688   0.81257   1.17815   0.00000  Uiso   1.00
C4692  C     0.69908   0.85080   1.17367   0.00000  Uiso   1.00
C4693  C     0.65187   0.83015   1.05462   0.00000  Uiso   1.00
O4694  O     0.68046   0.82630   1.05739   0.00000  Uiso   1.00
C4695  C     0.63925   0.85564   1.05876   0.00000  Uiso   1.00
C4696  C     0.63399   0.83166   1.13957   0.00000  Uiso   1.00
C4697  C     0.65617   0.83112   1.15669   0.00000  Uiso   1.00
O4698  O     0.67840   0.85011   1.15280   0.00000  Uiso   1.00
H4699  H     0.60099   0.74502   1.19269   0.00000  Uiso   1.00
H4700  H     0.79395   0.91632   1.04629   0.00000  Uiso   1.00
C4701  C     0.63578   0.79265   1.18095   0.00000  Uiso   1.00
C4702  C     0.69622   0.85092   1.05933   0.00000  Uiso   1.00
O4703  O     0.65498   0.87888   1.06480   0.00000  Uiso   1.00
C4704  C     0.84489   0.78750   1.18806   0.00000  Uiso   1.00
H4705  H     0.63179   0.84688   1.12443   0.00000  Uiso   1.00
C4706  C     0.72744   0.88260   1.14538   0.00000  Uiso   1.00
C4707  C     0.68353   0.87640   1.06260   0.00000  Uiso   1.00
N4708  N     0.73293   0.89379   1.12583   0.00000  Uiso   1.00
C4709  C     0.63058   0.95158   1.02637   0.00000  Uiso   1.00
O4710  O     0.83413   0.87920   1.12787   0.00000  Uiso   1.00
C4711  C     0.79128   0.80808   1.03482   0.00000  Uiso   1.00
N4712  N     0.62964   0.85999   0.99326   0.00000  Uiso   1.00
H4713  H     0.83811   0.94195   1.05298   0.00000  Uiso   1.00
H4714  H     0.64092   0.92980   1.06399   0.00000  Uiso   1.00
O4715  O     0.72448   0.78876   1.16256   0.00000  Uiso   1.00
O4716  O     0.63006   0.92637   1.01207   0.00000  Uiso   1.00
H4717  H     0.83415   0.73525   1.11325   0.00000  Uiso   1.00
H4718  H     0.82973   0.92129   0.99992   0.00000  Uiso   1.00
C4719  C     0.61441   0.79101   1.16139   0.00000  Uiso   1.00
H4720  H     0.70276   0.74387   0.98186   0.00000  Uiso   1.00
C4721  C     0.59480   0.74389   1.11397   0.00000  Uiso   1.00
C4722  C     0.77788   0.85536   1.01788   0.00000  Uiso   1.00
C4723  C     0.70839   0.74933   1.19026   0.00000  Uiso   1.00
C4724  C     0.77475   0.76805   1.21463   0.00000  Uiso   1.00
C4725  C     0.69218   0.72482   1.19244   0.00000  Uiso   1.00
C4726  C     0.67583   0.73239   1.14551   0.00000  Uiso   1.00
H4727  H     0.79180   0.76292   0.99465   0.00000  Uiso   1.00
C4728  C     0.85132   0.91602   0.99516   0.00000  Uiso   1.00
H4729  H     0.81059   0.79460   1.03667   0.00000  Uiso   1.00
H4730  H     0.78566   0.94415   1.19839   0.00000  Uiso   1.00
H4731  H     0.57733   0.85139   1.16236   0.00000  Uiso   1.00
N4732  N     0.68365   0.78722   1.10384   0.00000  Uiso   1.00
H4733  H     0.87556   0.78601   1.12691   0.00000  Uiso   1.00
C4734  C     0.84129   0.84403   1.05980   0.00000  Uiso   1.00
C4735  C     0.82887   0.77124   1.21027   0.00000  Uiso   1.00
C4736  C     0.73386   0.72408   1.00948   0.00000  Uiso   1.00
C4737  C     0.56104   0.82288   1.01361   0.00000  Uiso   1.00
C4738  C     0.68881   0.75738   1.14634   0.00000  Uiso   1.00
C4739  C     0.61983   0.87973   0.98420   0.00000  Uiso   1.00
C4740  C     0.69865   0.83270   1.19602   0.00000  Uiso   1.00
H4741  H     0.78811   0.96544   1.16008   0.00000  Uiso   1.00
C4742  C     0.72412   0.84830   1.05432   0.00000  Uiso   1.00
C4743  C     0.77530   0.90605   1.03781   0.00000  Uiso   1.00
C4744  C     0.82408   0.80828   1.17469   0.00000  Uiso   1.00
H4745  H     0.76747   0.81809   1.15640   0.00000  Uiso   1.00
C4746  C     0.76135   0.73102   1.02346   0.00000  Uiso   1.00
C4747  C     0.68552   0.77351   1.12248   0.00000  Uiso   1.00
C4748  C     0.80270   0.87470   1.09061   0.00000  Uiso   1.00
C4749  C     0.73731   0.94237   1.02698   0.00000  Uiso   1.00
C4750  C     0.59749   0.88150   1.05990   0.00000  Uiso   1.00
H4751  H     0.78902   0.88922   1.09974   0.00000  Uiso   1.00
C4752  C     0.82511   0.83916   1.18443   0.00000  Uiso   1.00
H4753  H     0.82953   0.85399   0.99435   0.00000  Uiso   1.00
H4754  H     0.84914   0.96669   1.02833   0.00000  Uiso   1.00
C4755  C     0.70750   0.76532   1.16623   0.00000  Uiso   1.00
C4756  C     0.82882   0.86961   1.10066   0.00000  Uiso   1.00
C4757  C     0.61140   0.81421   1.14487   0.00000  Uiso   1.00
C4758  C     0.74110   0.87186   1.05373   0.00000  Uiso   1.00
C4759  C     0.82860   0.81251   1.14319   0.00000  Uiso   1.00
H4760  H     0.81180   0.82455   1.13338   0.00000  Uiso   1.00
C4761  C     0.74851   0.92067   1.04798   0.00000  Uiso   1.00
N4762  N     0.58607   0.90187   1.06451   0.00000  Uiso   1.00
H4763  H     0.81439   0.94107   1.12412   0.00000  Uiso   1.00
O4764  O     0.72760   0.75582   1.21156   0.00000  Uiso   1.00
H4765  H     0.82937   0.79431   1.12980   0.00000  Uiso   1.00
C4766  C     0.76931   0.90416   1.21477   0.00000  Uiso   1.00
C4767  C     0.55566   0.93314   1.11031   0.00000  Uiso   1.00
C4768  C     0.58157   0.81684   1.13569   0.00000  Uiso   1.00
H4769  H     0.80994   0.85193   1.17321   0.00000  Uiso   1.00
H4770  H     0.69003   0.92011   1.06195   0.00000  Uiso   1.00
C4771  C     0.75385   0.93810   1.07360   0.00000  Uiso   1.00
C4772  C     0.77169   0.80256   1.17133   0.00000  Uiso   1.00
C4773  C     0.79839   0.77785   1.20358   0.00000  Uiso   1.00
C4774  C     0.72289   0.74721   0.99023   0.00000  Uiso   1.00
H4775  H     0.60995   0.75771   1.10466   0.00000  Uiso   1.00
H4776  H     0.65962   0.93889   1.10435   0.00000  Uiso   1.00
H4777  H     0.57587   0.91340   1.14553   0.00000  Uiso   1.00
C4778  C     0.71681   0.83643   1.21799   0.00000  Uiso   1.00
C4779  C     0.74876   0.77196   1.20281   0.00000  Uiso   1.00
C4780  C     0.61513   0.92795   0.98687   0.00000  Uiso   1.00
H4781  H     0.63849   0.77640   1.19581   0.00000  Uiso   1.00
C4782  C     0.57645   0.80734   1.10598   0.00000  Uiso   1.00
H4783  H     0.73571   0.82948   1.05432   0.00000  Uiso   1.00
H4784  H     0.72787   0.93316   1.00820   0.00000  Uiso   1.00
C4785  C     0.79702   0.86783   1.06324   0.00000  Uiso   1.00
H4786  H     0.57755   0.86086   1.12737   0.00000  Uiso   1.00
H4787  H     0.84263   0.77324   1.01594   0.00000  Uiso   1.00
H4788  H     0.70399   0.73677   1.04227   0.00000  Uiso   1.00
C4789  C     0.82399   0.95751   1.11190   0.00000  Uiso   1.00
C4790  C     0.83383   0.73853   1.21028   0.00000  Uiso   1.00
O4791  O     0.67680   0.81356   1.19944   0.00000  Uiso   1.00
C4792  C     0.60134   0.94611   1.12682   0.00000  Uiso   1.00
C4793  C     0.56780   0.72960   1.15171   0.00000  Uiso   1.00
C4794  C     0.82106   0.83526   1.00039   0.00000  Uiso   1.00
C4795  C     0.86984   0.92846   1.01987   0.00000  Uiso   1.00
H4796  H     0.84945   0.82189   1.13866   0.00000  Uiso   1.00
H4797  H     0.62677   0.90570   1.16109   0.00000  Uiso   1.00
H4798  H     0.57805   0.76939   1.20532   0.00000  Uiso   1.00
C4799  C     0.84728   0.90909   1.17304   0.00000  Uiso   1.00
H4800  H     0.83849   0.82256   1.00656   0.00000  Uiso   1.00
H4801  H     0.86533   0.79627   1.19454   0.00000  Uiso   1.00
C4802  C     0.73664   0.85787   1.21594   0.00000  Uiso   1.00
H4803  H     0.84975   0.77299   1.17290   0.00000  Uiso   1.00
H4804  H     0.81068   0.96148   1.09290   0.00000  Uiso   1.00
C4805  C     0.78385   0.92929   1.21503   0.00000  Uiso   1.00
C4806  C     0.63863   0.91380   1.14345   0.00000  Uiso   1.00
H4807  H     0.84324   0.94916   1.10639   0.00000  Uiso   1.00
C4808  C     0.87546   0.72511   1.12715   0.00000  Uiso   1.00
H4809  H     0.87568   0.73223   1.06973   0.00000  Uiso   1.00
H4810  H     0.84676   0.84890   1.18032   0.00000  Uiso   1.00
H4811  H     0.84286   0.77934   0.98187   0.00000  Uiso   1.00
O4812  O     0.59806   0.78936   1.02234   0.00000  Uiso   1.00
O4813  O     0.87448   0.85116   1.09589   0.00000  Uiso   1.00
H4814  H     0.61723   0.95029   1.18059   0.00000  Uiso   1.00
C4815  C     0.63687   0.95044   1.05513   0.00000  Uiso   1.00
C4816  C     0.88209   0.86630   1.11995   0.00000  Uiso   1.00
H4817  H     0.77797   0.90893   1.01508   0.00000  Uiso   1.00
H4818  H     0.86822   0.89606   1.05110   0.00000  Uiso   1.00
H4819  H     0.75244   0.95714   1.01951   0.00000  Uiso   1.00
C4820  C     0.63175   0.94395   1.13879   0.00000  Uiso   1.00
C4821  C     0.85662   0.94812   1.03934   0.00000  Uiso   1.00
H4822  H     0.85344   0.73592   1.20036   0.00000  Uiso   1.00
C4823  C     0.57056   0.84523   1.14208   0.00000  Uiso   1.00
H4824  H     0.57752   0.76082   0.98324   0.00000  Uiso   1.00
C4825  C     0.65200   0.95616   1.11742   0.00000  Uiso   1.00
H4826  H     0.81947   0.84335   1.20774   0.00000  Uiso   1.00
O4827  O     0.57001   0.84148   1.03401   0.00000  Uiso   1.00
H4828  H     0.81062   0.82654   0.98155   0.00000  Uiso   1.00
H4829  H     0.77023   0.95322   1.07180   0.00000  Uiso   1.00
H4830  H     0.59598   0.80126   1.09763   0.00000  Uiso   1.00
C4831  C     0.56729   0.79700   1.15551   0.00000  Uiso   1.00
H4832  H     0.56007   0.79084   1.10568   0.00000  Uiso   1.00
H4833  H     0.56207   0.80823   1.17524   0.00000  Uiso   1.00
H4834  H     0.87179   0.95475   1.05597   0.00000  Uiso   1.00
C4835  C     0.56618   0.77986   0.98720   0.00000  Uiso   1.00
C4836  C     0.88012   0.77463   1.10723   0.00000  Uiso   1.00
C4837  C     0.82880   0.73720   0.99154   0.00000  Uiso   1.00
H4838  H     0.81761   0.72750   1.19886   0.00000  Uiso   1.00
C4839  C     0.55974   0.95143   1.08907   0.00000  Uiso   1.00
H4840  H     0.56924   0.82538   1.09456   0.00000  Uiso   1.00
H4841  H     0.67116   0.96512   1.12679   0.00000  Uiso   1.00
C4842  C     0.62946   0.96224   1.16471   0.00000  Uiso   1.00
H4843  H     0.65010   0.96340   1.17375   0.00000  Uiso   1.00
C4844  C     0.58278   0.96777   1.08659   0.00000  Uiso   1.00
H4845  H     0.73820   0.75173   0.97303   0.00000  Uiso   1.00
C4846  C     0.58382   0.72408   1.09766   0.00000  Uiso   1.00
O4847  O     0.59145   0.72346   1.07006   0.00000  Uiso   1.00
C4848  C     0.60808   0.90319   0.97260   0.00000  Uiso   1.00
C4849  C     0.72941   1.03669   0.30675   0.00000  Uiso   1.00
H4850  H     0.56471   0.97645   0.38239   0.00000  Uiso   1.00
H4851  H     0.59680   1.04926   0.34629   0.00000  Uiso   1.00
O4852  O     0.80632   1.08500   0.25874   0.00000  Uiso   1.00
C4853  C     0.63598   1.15729   0.37860   0.00000  Uiso   1.00
C4854  C     0.65711   0.99624   0.44129   0.00000  Uiso   1.00
C4855  C     0.66353   1.08533   0.43170   0.00000  Uiso   1.00
H4856  H     0.63974   0.99236   0.34051   0.00000  Uiso   1.00
H4857  H     0.62788   1.15913   0.45091   0.00000  Uiso   1.00
H4858  H     0.58260   1.18544   0.46514   0.00000  Uiso   1.00
H4859  H     0.77520   1.06996   0.34082   0.00000  Uiso   1.00
O4860  O     0.80563   1.06207   0.38152   0.00000  Uiso   1.00
O4861  O     0.67399   0.99666   0.24699   0.00000  Uiso   1.00
H4862  H     0.56839   1.01076   0.36659   0.00000  Uiso   1.00
C4863  C     0.60681   1.01483   0.32143   0.00000  Uiso   1.00
C4864  C     0.64273   1.00615   0.28262   0.00000  Uiso   1.00
C4865  C     0.59706   1.06281   0.30682   0.00000  Uiso   1.00
C4866  C     0.65518   1.01433   0.25836   0.00000  Uiso   1.00
H4867  H     0.61977   1.06014   0.37909   0.00000  Uiso   1.00
C4868  C     0.57409   1.07058   0.28871   0.00000  Uiso   1.00
H4869  H     0.69520   1.01417   0.34551   0.00000  Uiso   1.00
H4870  H     0.61062   1.06663   0.41427   0.00000  Uiso   1.00
H4871  H     0.62312   1.12839   0.26228   0.00000  Uiso   1.00
C4872  C     0.76406   1.05962   0.35789   0.00000  Uiso   1.00
C4873  C     0.77788   1.05572   0.38291   0.00000  Uiso   1.00
H4874  H     0.60173   1.15173   0.34882   0.00000  Uiso   1.00
C4875  C     0.85278   1.20868   0.27513   0.00000  Uiso   1.00
N4876  N     0.73504   1.10722   0.39386   0.00000  Uiso   1.00
C4877  C     0.59021   0.98975   0.31045   0.00000  Uiso   1.00
C4878  C     0.75638   1.11523   0.40268   0.00000  Uiso   1.00
C4879  C     0.64824   1.02317   0.43480   0.00000  Uiso   1.00
C4880  C     0.78234   1.12534   0.41355   0.00000  Uiso   1.00
C4881  C     0.80103   1.13725   0.39645   0.00000  Uiso   1.00
O4882  O     0.79594   1.14145   0.36784   0.00000  Uiso   1.00
H4883  H     0.71978   1.16041   0.26012   0.00000  Uiso   1.00
C4884  C     0.82468   1.14782   0.40917   0.00000  Uiso   1.00
C4885  C     0.81316   1.16051   0.35368   0.00000  Uiso   1.00
O4886  O     0.84328   1.16690   0.39370   0.00000  Uiso   1.00
C4887  C     0.83594   1.17274   0.36598   0.00000  Uiso   1.00
C4888  C     0.80777   1.16781   0.32625   0.00000  Uiso   1.00
N4889  N     0.68389   1.18100   0.29578   0.00000  Uiso   1.00
C4890  C     0.69182   1.17873   0.31760   0.00000  Uiso   1.00
C4891  C     0.82410   1.04264   0.45322   0.00000  Uiso   1.00
O4892  O     0.65459   1.16021   0.35620   0.00000  Uiso   1.00
C4893  C     0.70056   1.17518   0.34481   0.00000  Uiso   1.00
C4894  C     0.72602   1.18532   0.35181   0.00000  Uiso   1.00
C4895  C     0.68074   1.16888   0.36566   0.00000  Uiso   1.00
C4896  C     0.60908   1.16815   0.25166   0.00000  Uiso   1.00
C4897  C     0.68998   1.04568   0.37536   0.00000  Uiso   1.00
F4898  F     0.74385   1.19170   0.33082   0.00000  Uiso   1.00
C4899  C     0.83432   1.13825   0.43492   0.00000  Uiso   1.00
C4900  C     0.63707   1.18068   0.24334   0.00000  Uiso   1.00
O4901  O     0.77880   1.03775   0.42974   0.00000  Uiso   1.00
H4902  H     0.80534   1.00768   0.24927   0.00000  Uiso   1.00
C4903  C     0.85029   1.05330   0.45467   0.00000  Uiso   1.00
H4904  H     0.64590   1.16680   0.22790   0.00000  Uiso   1.00
C4905  C     0.59556   1.15144   0.41922   0.00000  Uiso   1.00
H4906  H     0.78859   1.15984   0.31492   0.00000  Uiso   1.00
N4907  N     0.88191   1.15016   0.45231   0.00000  Uiso   1.00
C4908  C     0.80711   1.04560   0.42978   0.00000  Uiso   1.00
C4909  C     0.73445   1.18435   0.37866   0.00000  Uiso   1.00
C4910  C     0.67457   1.07243   0.38387   0.00000  Uiso   1.00
C4911  C     0.68608   1.00521   0.22273   0.00000  Uiso   1.00
C4912  C     0.88625   1.10542   0.28972   0.00000  Uiso   1.00
O4913  O     0.67092   1.16213   0.41489   0.00000  Uiso   1.00
H4914  H     0.61400   1.10440   0.30429   0.00000  Uiso   1.00
C4915  C     0.58917   1.04124   0.32625   0.00000  Uiso   1.00
N4916  N     0.86834   1.08414   0.36151   0.00000  Uiso   1.00
C4917  C     0.84273   1.07922   0.22477   0.00000  Uiso   1.00
C4918  C     0.85900   1.07655   0.38142   0.00000  Uiso   1.00
C4919  C     0.73559   1.04227   0.40534   0.00000  Uiso   1.00
C4920  C     0.72185   1.04791   0.38109   0.00000  Uiso   1.00
C4921  C     0.70722   1.08101   0.32399   0.00000  Uiso   1.00
H4922  H     0.87069   1.19728   0.36199   0.00000  Uiso   1.00
O4923  O     0.76949   1.10763   0.45701   0.00000  Uiso   1.00
N4924  N     0.82440   1.05299   0.31840   0.00000  Uiso   1.00
H4925  H     0.58948   1.00344   0.39639   0.00000  Uiso   1.00
H4926  H     0.66073   1.08165   0.36756   0.00000  Uiso   1.00
H4927  H     0.80286   1.15659   0.26815   0.00000  Uiso   1.00
H4928  H     0.62424   1.08749   0.33568   0.00000  Uiso   1.00
N4929  N     0.73473   1.17544   0.44847   0.00000  Uiso   1.00
F4930  F     0.76094   1.19009   0.38592   0.00000  Uiso   1.00
C4931  C     0.81578   1.12525   0.45274   0.00000  Uiso   1.00
H4932  H     0.59131   1.09868   0.33285   0.00000  Uiso   1.00
C4933  C     0.72510   1.17563   0.42622   0.00000  Uiso   1.00
C4934  C     0.63105   1.20907   0.23152   0.00000  Uiso   1.00
H4935  H     0.60082   1.19577   0.28783   0.00000  Uiso   1.00
C4936  C     0.84556   1.05679   0.26947   0.00000  Uiso   1.00
C4937  C     0.79690   0.99101   0.23516   0.00000  Uiso   1.00
C4938  C     0.69122   1.03670   0.34503   0.00000  Uiso   1.00
C4939  C     0.55653   1.10476   0.39026   0.00000  Uiso   1.00
C4940  C     0.55880   1.13689   0.39078   0.00000  Uiso   1.00
H4941  H     0.86519   1.19264   0.26555   0.00000  Uiso   1.00
H4942  H     0.70191   1.09194   0.34357   0.00000  Uiso   1.00
H4943  H     0.58492   1.16059   0.28913   0.00000  Uiso   1.00
H4944  H     0.55900   1.08311   0.30027   0.00000  Uiso   1.00
C4945  C     0.65953   1.03817   0.41396   0.00000  Uiso   1.00
C4946  C     0.84625   1.06552   0.40638   0.00000  Uiso   1.00
C4947  C     0.86517   1.21391   0.30462   0.00000  Uiso   1.00
C4948  C     0.82196   1.16804   0.26408   0.00000  Uiso   1.00
C4949  C     0.64414   1.15804   0.40598   0.00000  Uiso   1.00
H4950  H     0.62923   1.07930   0.25456   0.00000  Uiso   1.00
C4951  C     0.62466   1.07278   0.39779   0.00000  Uiso   1.00
C4952  C     0.67753   0.98482   0.42367   0.00000  Uiso   1.00
H4953  H     0.62054   1.16602   0.29550   0.00000  Uiso   1.00
C4954  C     0.73567   1.05379   0.35690   0.00000  Uiso   1.00
C4955  C     0.68867   1.16964   0.39371   0.00000  Uiso   1.00
C4956  C     0.71631   1.17508   0.39969   0.00000  Uiso   1.00
C4957  C     0.60812   1.15281   0.37076   0.00000  Uiso   1.00
O4958  O     0.88851   1.07716   0.43012   0.00000  Uiso   1.00
H4959  H     0.83753   1.15419   0.26542   0.00000  Uiso   1.00
H4960  H     0.75656   1.10081   0.26610   0.00000  Uiso   1.00
C4961  C     0.84856   1.19598   0.32444   0.00000  Uiso   1.00
H4962  H     0.80046   0.98363   0.28222   0.00000  Uiso   1.00
H4963  H     0.68954   1.08842   0.39089   0.00000  Uiso   1.00
H4964  H     0.58817   1.12846   0.25276   0.00000  Uiso   1.00
H4965  H     0.57339   1.09725   0.37535   0.00000  Uiso   1.00
H4966  H     0.88330   1.08836   0.30566   0.00000  Uiso   1.00
C4967  C     0.85189   1.19055   0.35193   0.00000  Uiso   1.00
H4968  H     0.57907   1.00469   0.27045   0.00000  Uiso   1.00
H4969  H     0.81933   1.17276   0.24198   0.00000  Uiso   1.00
H4970  H     0.58166   1.08246   0.27081   0.00000  Uiso   1.00
C4971  C     0.64612   1.04027   0.24741   0.00000  Uiso   1.00
C4972  C     0.79917   1.21083   0.27341   0.00000  Uiso   1.00
H4973  H     0.65234   1.18352   0.25879   0.00000  Uiso   1.00
C4974  C     0.62326   1.15623   0.42676   0.00000  Uiso   1.00
C4975  C     0.59963   0.98132   0.35723   0.00000  Uiso   1.00
H4976  H     0.68930   1.20141   0.24873   0.00000  Uiso   1.00
H4977  H     0.62680   1.01847   0.36151   0.00000  Uiso   1.00
C4978  C     0.83469   1.05401   0.29703   0.00000  Uiso   1.00
C4979  C     0.62528   1.02338   0.29796   0.00000  Uiso   1.00
C4980  C     0.76392   1.04602   0.40595   0.00000  Uiso   1.00
C4981  C     0.78925   1.12081   0.44115   0.00000  Uiso   1.00
H4982  H     0.73234   1.01340   0.30984   0.00000  Uiso   1.00
H4983  H     0.72337   1.03642   0.42419   0.00000  Uiso   1.00
H4984  H     0.78081   1.19940   0.28037   0.00000  Uiso   1.00
C4985  C     0.60674   1.08990   0.31975   0.00000  Uiso   1.00
C4986  C     0.58847   1.14722   0.39179   0.00000  Uiso   1.00
H4987  H     0.69046   1.08052   0.31066   0.00000  Uiso   1.00
C4988  C     0.81926   1.05593   0.40561   0.00000  Uiso   1.00
C4989  C     0.87078   1.04484   0.26242   0.00000  Uiso   1.00
C4990  C     0.82508   1.19365   0.28166   0.00000  Uiso   1.00
H4991  H     0.69719   0.98429   0.38525   0.00000  Uiso   1.00
H4992  H     0.71511   1.03894   0.28932   0.00000  Uiso   1.00
C4993  C     0.61969   1.05051   0.28843   0.00000  Uiso   1.00
C4994  C     0.71619   1.05170   0.33159   0.00000  Uiso   1.00
C4995  C     0.82481   1.18641   0.31243   0.00000  Uiso   1.00
C4996  C     0.63080   1.05853   0.26231   0.00000  Uiso   1.00
H4997  H     0.75034   1.04557   0.30110   0.00000  Uiso   1.00
C4998  C     0.75043   1.12105   0.22758   0.00000  Uiso   1.00
H4999  H     0.72222   1.09463   0.31520   0.00000  Uiso   1.00
O5000  O     0.88756   1.03087   0.28066   0.00000  Uiso   1.00
C5001  C     0.57849   0.98713   0.28481   0.00000  Uiso   1.00
C5002  C     0.65438   1.06776   0.40735   0.00000  Uiso   1.00
C5003  C     0.60272   1.17371   0.28332   0.00000  Uiso   1.00
C5004  C     0.70333   1.10132   0.22548   0.00000  Uiso   1.00
H5005  H     0.68823   1.14727   0.24960   0.00000  Uiso   1.00
C5006  C     0.86133   1.06480   0.43012   0.00000  Uiso   1.00
C5007  C     0.76521   1.10637   0.24564   0.00000  Uiso   1.00
H5008  H     0.56157   1.18635   0.35896   0.00000  Uiso   1.00
C5009  C     0.83130   1.07257   0.25044   0.00000  Uiso   1.00
H5010  H     0.61687   1.09416   0.39543   0.00000  Uiso   1.00
H5011  H     0.68177   1.07652   0.44123   0.00000  Uiso   1.00
H5012  H     0.64905   1.08667   0.44892   0.00000  Uiso   1.00
C5013  C     0.67800   1.02627   0.39623   0.00000  Uiso   1.00
C5014  C     0.86052   1.14431   0.44379   0.00000  Uiso   1.00
C5015  C     0.79148   1.09748   0.23897   0.00000  Uiso   1.00
H5016  H     0.87005   1.20514   0.46650   0.00000  Uiso   1.00
H5017  H     0.66846   1.10756   0.42742   0.00000  Uiso   1.00
H5018  H     0.70913   1.12675   0.27216   0.00000  Uiso   1.00
H5019  H     0.67175   1.04041   0.33537   0.00000  Uiso   1.00
H5020  H     0.56769   1.03849   0.32969   0.00000  Uiso   1.00
C5021  C     0.57929   0.99334   0.37850   0.00000  Uiso   1.00
H5022  H     0.63337   1.03258   0.44931   0.00000  Uiso   1.00
C5023  C     0.88115   1.04855   0.23470   0.00000  Uiso   1.00
C5024  C     0.62088   1.00209   0.34727   0.00000  Uiso   1.00
C5025  C     0.56972   1.12878   0.45626   0.00000  Uiso   1.00
H5026  H     0.70005   1.09154   0.24575   0.00000  Uiso   1.00
C5027  C     0.70901   1.14155   0.25407   0.00000  Uiso   1.00
C5028  C     0.68467   0.99857   0.39984   0.00000  Uiso   1.00
H5029  H     0.86855   1.11896   0.29291   0.00000  Uiso   1.00
C5030  C     0.56680   1.18109   0.44959   0.00000  Uiso   1.00
C5031  C     0.60781   1.13726   0.24766   0.00000  Uiso   1.00
O5032  O     0.64818   0.98287   0.46554   0.00000  Uiso   1.00
H5033  H     0.64690   0.98547   0.29152   0.00000  Uiso   1.00
H5034  H     0.77445   0.98981   0.23753   0.00000  Uiso   1.00
H5035  H     0.56943   1.19529   0.43181   0.00000  Uiso   1.00
H5036  H     0.61528   1.13028   0.22715   0.00000  Uiso   1.00
H5037  H     0.88561   1.09724   0.26894   0.00000  Uiso   1.00
C5038  C     0.56968   1.15297   0.43603   0.00000  Uiso   1.00
H5039  H     0.85466   0.97908   0.23693   0.00000  Uiso   1.00
H5040  H     0.55911   1.09476   0.41043   0.00000  Uiso   1.00
H5041  H     0.57490   1.10927   0.44791   0.00000  Uiso   1.00
C5042  C     0.58977   1.18264   0.23179   0.00000  Uiso   1.00
C5043  C     0.71998   1.12773   0.22862   0.00000  Uiso   1.00
H5044  H     0.56224   1.05438   0.27933   0.00000  Uiso   1.00
N5045  N     0.63738   1.21538   0.46118   0.00000  Uiso   1.00
H5046  H     0.81674   0.98146   0.33113   0.00000  Uiso   1.00
H5047  H     0.80020   1.21047   0.25083   0.00000  Uiso   1.00
H5048  H     0.55635   1.15327   0.23075   0.00000  Uiso   1.00
O5049  O     0.65716   1.04838   0.22213   0.00000  Uiso   1.00
C5050  C     0.60131   1.20734   0.22322   0.00000  Uiso   1.00
N5051  N     0.85559   1.00091   0.66462   0.00000  Uiso   1.00
C5052  C     0.59423   1.12506   0.53741   0.00000  Uiso   1.00
C5053  C     0.76383   1.21662   0.71063   0.00000  Uiso   1.00
C5054  C     0.79243   1.04681   0.62567   0.00000  Uiso   1.00
H5055  H     0.63073   0.99676   0.65420   0.00000  Uiso   1.00
C5056  C     0.78801   1.17747   0.53782   0.00000  Uiso   1.00
H5057  H     0.86510   1.07141   0.67877   0.00000  Uiso   1.00
N5058  N     0.79088   1.18477   0.48525   0.00000  Uiso   1.00
C5059  C     0.75570   1.16778   0.70668   0.00000  Uiso   1.00
C5060  C     0.73694   1.03006   0.52352   0.00000  Uiso   1.00
C5061  C     0.83231   1.05378   0.59365   0.00000  Uiso   1.00
H5062  H     0.58005   1.18979   0.53297   0.00000  Uiso   1.00
H5063  H     0.87987   1.13549   0.61407   0.00000  Uiso   1.00
H5064  H     0.56644   1.20355   0.56551   0.00000  Uiso   1.00
H5065  H     0.71806   1.03816   0.51307   0.00000  Uiso   1.00
C5066  C     0.63480   1.20772   0.58562   0.00000  Uiso   1.00
C5067  C     0.76466   1.07289   0.52320   0.00000  Uiso   1.00
H5068  H     0.59219   0.99952   0.67041   0.00000  Uiso   1.00
H5069  H     0.81844   0.97891   0.56166   0.00000  Uiso   1.00
H5070  H     0.85225   1.14469   0.68702   0.00000  Uiso   1.00
O5071  O     0.86272   1.05501   0.47985   0.00000  Uiso   1.00
C5072  C     0.57689   1.13335   0.55914   0.00000  Uiso   1.00
O5073  O     0.74747   1.20211   0.54032   0.00000  Uiso   1.00
C5074  C     0.87930   1.13487   0.53543   0.00000  Uiso   1.00
H5075  H     0.73831   1.09276   0.56526   0.00000  Uiso   1.00
H5076  H     0.64585   1.20452   0.56572   0.00000  Uiso   1.00
C5077  C     0.58666   1.15203   0.57896   0.00000  Uiso   1.00
C5078  C     0.56866   1.15749   0.60179   0.00000  Uiso   1.00
O5079  O     0.83480   1.15694   0.53483   0.00000  Uiso   1.00
H5080  H     0.77981   1.02437   0.55110   0.00000  Uiso   1.00
H5081  H     0.83375   1.03096   0.52801   0.00000  Uiso   1.00
C5082  C     0.82424   1.08807   0.62932   0.00000  Uiso   1.00
H5083  H     0.77824   1.05718   0.64003   0.00000  Uiso   1.00
C5084  C     0.85551   0.99371   0.68717   0.00000  Uiso   1.00
C5085  C     0.79074   1.07896   0.53347   0.00000  Uiso   1.00
H5086  H     0.77188   1.08347   0.59368   0.00000  Uiso   1.00
N5087  N     0.62485   0.97730   0.53048   0.00000  Uiso   1.00
H5088  H     0.88669   1.07060   0.52440   0.00000  Uiso   1.00
H5089  H     0.84021   1.21583   0.48697   0.00000  Uiso   1.00
C5090  C     0.76825   1.18793   0.55409   0.00000  Uiso   1.00
C5091  C     0.78934   1.17289   0.59555   0.00000  Uiso   1.00
H5092  H     0.80660   1.03340   0.63825   0.00000  Uiso   1.00
C5093  C     0.82425   1.05211   0.56619   0.00000  Uiso   1.00
H5094  H     0.82974   1.08075   0.64832   0.00000  Uiso   1.00
C5095  C     0.72982   1.17253   0.69441   0.00000  Uiso   1.00
C5096  C     0.86181   1.20548   0.48736   0.00000  Uiso   1.00
H5097  H     0.86353   1.10529   0.66353   0.00000  Uiso   1.00
O5098  O     0.57657   1.17555   0.62230   0.00000  Uiso   1.00
H5099  H     0.59117   1.21910   0.54536   0.00000  Uiso   1.00
H5100  H     0.67812   1.10658   0.68813   0.00000  Uiso   1.00
H5101  H     0.87362   1.20844   0.55246   0.00000  Uiso   1.00
C5102  C     0.61489   1.18925   0.59301   0.00000  Uiso   1.00
C5103  C     0.58798   1.00388   0.69203   0.00000  Uiso   1.00
C5104  C     0.85603   1.14344   0.57783   0.00000  Uiso   1.00
C5105  C     0.80965   1.06804   0.60998   0.00000  Uiso   1.00
C5106  C     0.80971   1.09457   0.51936   0.00000  Uiso   1.00
C5107  C     0.77151   1.04422   0.55906   0.00000  Uiso   1.00
H5108  H     0.77998   1.03520   0.61123   0.00000  Uiso   1.00
C5109  C     0.88582   1.07124   0.48093   0.00000  Uiso   1.00
H5110  H     0.80301   1.10200   0.58299   0.00000  Uiso   1.00
H5111  H     0.65234   0.98297   0.69599   0.00000  Uiso   1.00
O5112  O     0.61198   1.16615   0.57628   0.00000  Uiso   1.00
C5113  C     0.81131   1.16361   0.57837   0.00000  Uiso   1.00
H5114  H     0.73124   1.01018   0.53427   0.00000  Uiso   1.00
O5115  O     0.71149   1.15069   0.68786   0.00000  Uiso   1.00
H5116  H     0.85705   1.18444   0.49542   0.00000  Uiso   1.00
C5117  C     0.72848   1.07365   0.55718   0.00000  Uiso   1.00
C5118  C     0.76737   1.18615   0.58310   0.00000  Uiso   1.00
H5119  H     0.75260   1.02358   0.50708   0.00000  Uiso   1.00
C5120  C     0.60391   1.21691   0.63316   0.00000  Uiso   1.00
C5121  C     0.87533   1.03189   0.58318   0.00000  Uiso   1.00
C5122  C     0.79037   1.16940   0.62415   0.00000  Uiso   1.00
O5123  O     0.88013   1.00858   0.53851   0.00000  Uiso   1.00
H5124  H     0.83999   1.09969   0.62106   0.00000  Uiso   1.00
C5125  C     0.84043   1.03672   0.54856   0.00000  Uiso   1.00
N5126  N     0.80374   1.02319   0.49578   0.00000  Uiso   1.00
C5127  C     0.86636   1.02583   0.55616   0.00000  Uiso   1.00
C5128  C     0.85754   1.04371   0.60250   0.00000  Uiso   1.00
C5129  C     0.80330   1.10494   0.49371   0.00000  Uiso   1.00
C5130  C     0.69609   1.20379   0.67753   0.00000  Uiso   1.00
H5131  H     0.86284   1.04072   0.62437   0.00000  Uiso   1.00
N5132  N     0.67503   1.20525   0.66729   0.00000  Uiso   1.00
N5133  N     0.79144   1.16662   0.64843   0.00000  Uiso   1.00
H5134  H     0.71103   1.08239   0.54492   0.00000  Uiso   1.00
C5135  C     0.75713   1.08453   0.49865   0.00000  Uiso   1.00
H5136  H     0.83029   1.09872   0.52900   0.00000  Uiso   1.00
O5137  O     0.83413   1.15331   0.59362   0.00000  Uiso   1.00
C5138  C     0.74786   1.05382   0.54093   0.00000  Uiso   1.00
C5139  C     0.81123   1.16545   0.54951   0.00000  Uiso   1.00
H5140  H     0.80967   1.10402   0.63412   0.00000  Uiso   1.00
C5141  C     0.66546   1.04795   0.69825   0.00000  Uiso   1.00
N5142  N     0.60912   1.11898   0.51918   0.00000  Uiso   1.00
C5143  C     0.85684   1.14495   0.54872   0.00000  Uiso   1.00
O5144  O     0.76346   1.14168   0.71470   0.00000  Uiso   1.00
H5145  H     0.71873   1.06194   0.57490   0.00000  Uiso   1.00
C5146  C     0.77640   1.09908   0.48225   0.00000  Uiso   1.00
C5147  C     0.78891   1.18103   0.50835   0.00000  Uiso   1.00
H5148  H     0.76309   1.03657   0.57709   0.00000  Uiso   1.00
C5149  C     0.59889   1.19307   0.61717   0.00000  Uiso   1.00
C5150  C     0.79542   1.06465   0.55993   0.00000  Uiso   1.00
C5151  C     0.60065   0.98876   0.71113   0.00000  Uiso   1.00
C5152  C     0.87344   1.15252   0.68802   0.00000  Uiso   1.00
H5153  H     0.67825   1.04434   0.67938   0.00000  Uiso   1.00
C5154  C     0.69991   1.08154   0.71711   0.00000  Uiso   1.00
C5155  C     0.71887   1.12565   0.69839   0.00000  Uiso   1.00
C5156  C     0.79297   1.08141   0.58630   0.00000  Uiso   1.00
H5157  H     0.73797   1.07693   0.48914   0.00000  Uiso   1.00
O5158  O     0.74597   1.19608   0.59936   0.00000  Uiso   1.00
C5159  C     0.69874   1.10436   0.69994   0.00000  Uiso   1.00
C5160  C     0.57374   1.02723   0.69815   0.00000  Uiso   1.00
H5161  H     0.56607   1.22025   0.48964   0.00000  Uiso   1.00
C5162  C     0.74358   1.12104   0.71255   0.00000  Uiso   1.00
C5163  C     0.72171   1.20031   0.69051   0.00000  Uiso   1.00
H5164  H     0.87835   1.13633   0.51247   0.00000  Uiso   1.00
C5165  C     0.87944   1.13316   0.59141   0.00000  Uiso   1.00
H5166  H     0.65331   1.06542   0.69099   0.00000  Uiso   1.00
O5167  O     0.85848   1.19807   0.68137   0.00000  Uiso   1.00
C5168  C     0.64384   0.98007   0.64648   0.00000  Uiso   1.00
C5169  C     0.87583   1.08974   0.67344   0.00000  Uiso   1.00
C5170  C     0.87896   1.17940   0.68662   0.00000  Uiso   1.00
H5171  H     0.63828   0.97404   0.62396   0.00000  Uiso   1.00
C5172  C     0.57347   1.20681   0.54461   0.00000  Uiso   1.00
H5173  H     0.66534   0.99121   0.64467   0.00000  Uiso   1.00
H5174  H     0.76733   1.03712   0.71523   0.00000  Uiso   1.00
C5175  C     0.77289   1.18935   0.71246   0.00000  Uiso   1.00
C5176  C     0.88210   1.22054   0.50749   0.00000  Uiso   1.00
H5177  H     0.65032   1.03116   0.70234   0.00000  Uiso   1.00
O5178  O     0.82324   1.11753   0.47850   0.00000  Uiso   1.00
C5179  C     0.70210   1.22055   0.59861   0.00000  Uiso   1.00
C5180  C     0.72702   1.21418   0.55600   0.00000  Uiso   1.00
H5181  H     0.85006   1.10341   0.71945   0.00000  Uiso   1.00
O5182  O     0.56079   1.04036   0.67629   0.00000  Uiso   1.00
C5183  C     0.85574   0.98529   0.71428   0.00000  Uiso   1.00
C5184  C     0.72558   1.21056   0.58518   0.00000  Uiso   1.00
H5185  H     0.59167   1.22054   0.65238   0.00000  Uiso   1.00
H5186  H     0.70111   1.21411   0.62041   0.00000  Uiso   1.00
H5187  H     0.71173   1.02850   0.71423   0.00000  Uiso   1.00
C5188  C     0.81303   1.03125   0.47518   0.00000  Uiso   1.00
C5189  C     0.87116   1.09623   0.72181   0.00000  Uiso   1.00
H5190  H     0.58441   1.13226   0.47458   0.00000  Uiso   1.00
C5191  C     0.79217   1.01428   0.74438   0.00000  Uiso   1.00
C5192  C     0.72485   1.00863   0.89355   0.00000  Uiso   1.00
C5193  C     0.72703   1.03916   0.79992   0.00000  Uiso   1.00
C5194  C     0.57616   0.97909   0.84626   0.00000  Uiso   1.00
C5195  C     0.74816   1.06337   0.94151   0.00000  Uiso   1.00
C5196  C     0.77005   1.05065   0.95491   0.00000  Uiso   1.00
C5197  C     0.69197   1.14227   0.92979   0.00000  Uiso   1.00
H5198  H     0.60545   1.13813   0.90334   0.00000  Uiso   1.00
C5199  C     0.73231   1.04879   0.92101   0.00000  Uiso   1.00
C5200  C     0.85892   1.10483   0.94418   0.00000  Uiso   1.00
H5201  H     0.68669   1.02583   0.81237   0.00000  Uiso   1.00
H5202  H     0.77526   1.00416   0.81146   0.00000  Uiso   1.00
H5203  H     0.58632   1.03353   0.82868   0.00000  Uiso   1.00
C5204  C     0.81654   1.19363   0.95910   0.00000  Uiso   1.00
C5205  C     0.79342   1.00238   0.77071   0.00000  Uiso   1.00
H5206  H     0.80309   1.18855   0.79645   0.00000  Uiso   1.00
H5207  H     0.67260   1.08958   0.88824   0.00000  Uiso   1.00
C5208  C     0.75127   1.02786   0.78155   0.00000  Uiso   1.00
H5209  H     0.76517   1.09064   0.73712   0.00000  Uiso   1.00
H5210  H     0.84299   1.05506   0.90530   0.00000  Uiso   1.00
H5211  H     0.72260   1.06652   0.83794   0.00000  Uiso   1.00
C5212  C     0.58090   1.03368   0.85119   0.00000  Uiso   1.00
H5213  H     0.70642   1.18607   0.89574   0.00000  Uiso   1.00
C5214  C     0.76200   1.00938   0.92833   0.00000  Uiso   1.00
C5215  C     0.70516   1.01473   0.80384   0.00000  Uiso   1.00
H5216  H     0.66746   1.08381   0.75548   0.00000  Uiso   1.00
O5217  O     0.71174   1.06181   0.90661   0.00000  Uiso   1.00
C5218  C     0.68067   1.17173   0.93219   0.00000  Uiso   1.00
H5219  H     0.87067   1.07534   0.72926   0.00000  Uiso   1.00
H5220  H     0.58242   1.08644   0.87424   0.00000  Uiso   1.00
C5221  C     0.87382   1.05353   0.94046   0.00000  Uiso   1.00
H5222  H     0.57043   1.05414   0.93370   0.00000  Uiso   1.00
H5223  H     0.58262   1.12765   0.84966   0.00000  Uiso   1.00
H5224  H     0.58921   1.19792   0.94379   0.00000  Uiso   1.00
H5225  H     0.66992   1.16401   0.86416   0.00000  Uiso   1.00
C5226  C     0.81808   1.19606   0.93104   0.00000  Uiso   1.00
H5227  H     0.63421   1.16903   0.86403   0.00000  Uiso   1.00
C5228  C     0.70388   1.20629   0.96306   0.00000  Uiso   1.00
H5229  H     0.65059   1.05291   0.75495   0.00000  Uiso   1.00
C5230  C     0.62544   1.12617   0.90530   0.00000  Uiso   1.00
H5231  H     0.71504   0.98218   0.74562   0.00000  Uiso   1.00
C5232  C     0.65942   1.06800   0.74236   0.00000  Uiso   1.00
N5233  N     0.82165   1.18218   0.72866   0.00000  Uiso   1.00
H5234  H     0.75991   1.20476   0.95146   0.00000  Uiso   1.00
H5235  H     0.80555   1.19678   0.83427   0.00000  Uiso   1.00
O5236  O     0.55546   1.05886   0.73192   0.00000  Uiso   1.00
N5237  N     0.81878   1.19808   0.90717   0.00000  Uiso   1.00
C5238  C     0.70129   1.03698   0.73418   0.00000  Uiso   1.00
C5239  C     0.86666   1.07986   0.95533   0.00000  Uiso   1.00
C5240  C     0.81568   1.19885   0.81390   0.00000  Uiso   1.00
H5241  H     0.63378   1.16429   0.93736   0.00000  Uiso   1.00
O5242  O     0.83707   1.14980   0.95179   0.00000  Uiso   1.00
C5243  C     0.65093   1.14373   0.90063   0.00000  Uiso   1.00
O5244  O     0.79679   1.01119   0.96294   0.00000  Uiso   1.00
H5245  H     0.58742   1.02882   0.76845   0.00000  Uiso   1.00
H5246  H     0.69282   1.06524   0.78351   0.00000  Uiso   1.00
H5247  H     0.68173   1.20995   0.90938   0.00000  Uiso   1.00
C5248  C     0.84897   1.12562   0.96280   0.00000  Uiso   1.00
H5249  H     0.71090   1.00097   0.82142   0.00000  Uiso   1.00
C5250  C     0.65020   1.16849   0.92115   0.00000  Uiso   1.00
H5251  H     0.69260   1.01798   0.74486   0.00000  Uiso   1.00
C5252  C     0.74527   1.19865   0.93423   0.00000  Uiso   1.00
H5253  H     0.85557   1.10597   0.92147   0.00000  Uiso   1.00
C5254  C     0.78791   1.06666   0.97015   0.00000  Uiso   1.00
O5255  O     0.76796   0.98275   0.91976   0.00000  Uiso   1.00
H5256  H     0.59084   1.14320   0.95233   0.00000  Uiso   1.00
C5257  C     0.67545   1.12804   0.91073   0.00000  Uiso   1.00
C5258  C     0.68335   1.18489   0.96059   0.00000  Uiso   1.00
C5259  C     0.69737   1.19437   0.91455   0.00000  Uiso   1.00
C5260  C     0.77320   1.00981   0.78974   0.00000  Uiso   1.00
C5261  C     0.73702   1.05225   0.82686   0.00000  Uiso   1.00
N5262  N     0.71273   0.99739   0.87648   0.00000  Uiso   1.00
C5263  C     0.57130   1.14233   0.96259   0.00000  Uiso   1.00
C5264  C     0.68317   1.10173   0.90465   0.00000  Uiso   1.00
H5265  H     0.59218   1.01732   0.90438   0.00000  Uiso   1.00
H5266  H     0.56690   1.13156   0.81785   0.00000  Uiso   1.00
H5267  H     0.64996   1.00516   0.74196   0.00000  Uiso   1.00
C5268  C     0.71518   1.06236   0.78028   0.00000  Uiso   1.00
H5269  H     0.75420   1.06598   0.82076   0.00000  Uiso   1.00
H5270  H     0.72579   1.14147   0.96017   0.00000  Uiso   1.00
H5271  H     0.60350   0.98737   0.79650   0.00000  Uiso   1.00
H5272  H     0.69920   1.00577   0.78470   0.00000  Uiso   1.00
C5273  C     0.73978   1.02218   0.91439   0.00000  Uiso   1.00
H5274  H     0.55850   1.13488   0.94467   0.00000  Uiso   1.00
C5275  C     0.58527   1.19258   0.96611   0.00000  Uiso   1.00
C5276  C     0.71896   1.10219   0.93682   0.00000  Uiso   1.00
C5277  C     0.64617   0.99088   0.75912   0.00000  Uiso   1.00
C5278  C     0.57152   1.03626   0.72625   0.00000  Uiso   1.00
C5279  C     0.58604   1.02117   0.74637   0.00000  Uiso   1.00
H5280  H     0.62884   1.11899   0.92535   0.00000  Uiso   1.00
C5281  C     0.87642   1.03421   0.96617   0.00000  Uiso   1.00
C5282  C     0.70455   1.08827   0.91568   0.00000  Uiso   1.00
C5283  C     0.71257   1.12969   0.94364   0.00000  Uiso   1.00
C5284  C     0.83439   0.97895   0.75857   0.00000  Uiso   1.00
C5285  C     0.84829   1.04348   0.92353   0.00000  Uiso   1.00
H5286  H     0.58671   0.97994   0.89906   0.00000  Uiso   1.00
H5287  H     0.82954   1.04264   0.93622   0.00000  Uiso   1.00
H5288  H     0.72562   1.08289   0.78409   0.00000  Uiso   1.00
C5289  C     0.74898   1.03835   0.75491   0.00000  Uiso   1.00
O5290  O     0.74248   1.09033   0.94830   0.00000  Uiso   1.00
C5291  C     0.59377   1.00058   0.88919   0.00000  Uiso   1.00
H5292  H     0.74700   1.03803   0.84183   0.00000  Uiso   1.00
C5293  C     0.57400   1.00423   0.86537   0.00000  Uiso   1.00
H5294  H     0.57846   1.08984   0.93165   0.00000  Uiso   1.00
C5295  C     0.82673   1.16913   0.97041   0.00000  Uiso   1.00
C5296  C     0.60022   0.99699   0.73947   0.00000  Uiso   1.00
C5297  C     0.68121   1.05745   0.72335   0.00000  Uiso   1.00
C5298  C     0.74645   1.09670   0.72651   0.00000  Uiso   1.00
C5299  C     0.65011   1.15429   0.87006   0.00000  Uiso   1.00
H5300  H     0.65043   1.13591   0.85659   0.00000  Uiso   1.00
C5301  C     0.77647   1.02414   0.94886   0.00000  Uiso   1.00
O5302  O     0.81480   0.98537   0.77903   0.00000  Uiso   1.00
H5303  H     0.85250   1.02306   0.91727   0.00000  Uiso   1.00
C5304  C     0.72213   1.05456   0.74998   0.00000  Uiso   1.00
H5305  H     0.74430   1.17585   0.93424   0.00000  Uiso   1.00
H5306  H     0.59966   1.03883   0.86112   0.00000  Uiso   1.00
H5307  H     0.62123   1.10817   0.89165   0.00000  Uiso   1.00
H5308  H     0.64529   1.18791   0.91132   0.00000  Uiso   1.00
H5309  H     0.64290   1.00215   0.77846   0.00000  Uiso   1.00
H5310  H     0.84722   1.20857   0.77087   0.00000  Uiso   1.00
C5311  C     0.71655   1.21071   0.93387   0.00000  Uiso   1.00
H5312  H     0.83280   1.18497   0.81577   0.00000  Uiso   1.00
C5313  C     0.83455   0.99156   0.73242   0.00000  Uiso   1.00
H5314  H     0.61558   0.99656   0.88208   0.00000  Uiso   1.00
H5315  H     0.58612   1.10082   0.82482   0.00000  Uiso   1.00
C5316  C     0.57364   0.97586   0.94798   0.00000  Uiso   1.00
H5317  H     0.85607   1.02261   0.96922   0.00000  Uiso   1.00
C5318  C     0.56404   1.07441   0.94213   0.00000  Uiso   1.00
H5319  H     0.75506   1.20499   0.91424   0.00000  Uiso   1.00
C5320  C     0.56104   1.08157   0.86925   0.00000  Uiso   1.00
C5321  C     0.76956   1.03032   0.73633   0.00000  Uiso   1.00
C5322  C     0.80428   0.98420   0.95466   0.00000  Uiso   1.00
C5323  C     0.72456   1.07891   0.73117   0.00000  Uiso   1.00
C5324  C     0.61806   0.97653   0.75552   0.00000  Uiso   1.00
O5325  O     0.81343   1.00913   0.72488   0.00000  Uiso   1.00
H5326  H     0.56382   0.97763   0.82664   0.00000  Uiso   1.00
C5327  C     0.57157   1.11686   0.83483   0.00000  Uiso   1.00
H5328  H     0.74593   0.97522   0.73195   0.00000  Uiso   1.00
H5329  H     0.64199   1.07842   0.73112   0.00000  Uiso   1.00
C5330  C     0.82855   0.97248   0.96523   0.00000  Uiso   1.00
H5331  H     0.87911   1.11015   0.73834   0.00000  Uiso   1.00
N5332  N     0.56327   0.99571   0.94197   0.00000  Uiso   1.00
H5333  H     0.66368   0.97738   0.76337   0.00000  Uiso   1.00
C5334  C     0.55647   1.05197   0.85935   0.00000  Uiso   1.00
C5335  C     0.79921   1.18514   0.72225   0.00000  Uiso   1.00
C5336  C     0.85583   1.10153   1.10389   0.00000  Uiso   1.00
H5337  H     0.80356   0.99618   1.21338   0.00000  Uiso   1.00
H5338  H     0.69534   1.14784   1.19787   0.00000  Uiso   1.00
C5339  C     0.86916   1.07834   0.98410   0.00000  Uiso   1.00
C5340  C     0.55898   1.14083   1.01081   0.00000  Uiso   1.00
O5341  O     0.64252   1.20217   1.12957   0.00000  Uiso   1.00
C5342  C     0.65893   1.20726   1.10648   0.00000  Uiso   1.00
H5343  H     0.61434   1.06086   1.09554   0.00000  Uiso   1.00
H5344  H     0.68172   1.14517   1.15603   0.00000  Uiso   1.00
C5345  C     0.61140   1.04337   1.07912   0.00000  Uiso   1.00
C5346  C     0.79343   1.02403   1.12443   0.00000  Uiso   1.00
O5347  O     0.75975   1.10604   1.03764   0.00000  Uiso   1.00
H5348  H     0.72176   1.12340   1.09106   0.00000  Uiso   1.00
C5349  C     0.76215   1.19352   1.12205   0.00000  Uiso   1.00
O5350  O     0.66752   1.11709   1.01084   0.00000  Uiso   1.00
H5351  H     0.59238   1.03216   1.08139   0.00000  Uiso   1.00
C5352  C     0.86137   1.09784   1.00125   0.00000  Uiso   1.00
C5353  C     0.69087   1.21650   1.05996   0.00000  Uiso   1.00
C5354  C     0.70896   1.02412   1.00667   0.00000  Uiso   1.00
H5355  H     0.58144   0.98278   1.06897   0.00000  Uiso   1.00
C5356  C     0.79180   1.04181   1.06503   0.00000  Uiso   1.00
C5357  C     0.76934   1.03648   1.13135   0.00000  Uiso   1.00
H5358  H     0.76219   1.05586   1.12087   0.00000  Uiso   1.00
C5359  C     0.80659   1.05246   1.08599   0.00000  Uiso   1.00
C5360  C     0.81366   1.10753   1.13185   0.00000  Uiso   1.00
N5361  N     0.70517   1.00080   1.00412   0.00000  Uiso   1.00
C5362  C     0.76453   1.20456   1.14913   0.00000  Uiso   1.00
C5363  C     0.77628   1.06000   1.04753   0.00000  Uiso   1.00
H5364  H     0.86769   0.97584   1.14339   0.00000  Uiso   1.00
C5365  C     0.62262   0.97713   1.01466   0.00000  Uiso   1.00
C5366  C     0.81002   1.18286   1.01642   0.00000  Uiso   1.00
H5367  H     0.72232   1.16622   1.21179   0.00000  Uiso   1.00
H5368  H     0.87107   1.08637   1.09789   0.00000  Uiso   1.00
C5369  C     0.77926   1.08878   1.05062   0.00000  Uiso   1.00
C5370  C     0.79785   1.09880   1.07009   0.00000  Uiso   1.00
C5371  C     0.63589   1.02271   1.08043   0.00000  Uiso   1.00
C5372  C     0.63852   1.20098   1.17807   0.00000  Uiso   1.00
C5373  C     0.71210   1.05316   1.01011   0.00000  Uiso   1.00
H5374  H     0.85220   1.11769   1.08868   0.00000  Uiso   1.00
O5375  O     0.77221   1.20728   1.09899   0.00000  Uiso   1.00
H5376  H     0.66896   1.05022   1.09424   0.00000  Uiso   1.00
C5377  C     0.69016   1.03706   1.18528   0.00000  Uiso   1.00
H5378  H     0.74759   1.09984   1.15898   0.00000  Uiso   1.00
O5379  O     0.65858   1.18799   1.03257   0.00000  Uiso   1.00
O5380  O     0.72521   1.03492   1.15273   0.00000  Uiso   1.00
C5381  C     0.67461   1.19450   1.01034   0.00000  Uiso   1.00
H5382  H     0.87162   1.01178   1.01399   0.00000  Uiso   1.00
H5383  H     0.83336   1.00149   1.08160   0.00000  Uiso   1.00
O5384  O     0.60861   0.97814   0.98996   0.00000  Uiso   1.00
H5385  H     0.67416   1.11682   1.13019   0.00000  Uiso   1.00
H5386  H     0.76216   1.19447   1.19270   0.00000  Uiso   1.00
C5387  C     0.88296   1.06075   1.06112   0.00000  Uiso   1.00
H5388  H     0.85116   1.00441   1.15826   0.00000  Uiso   1.00
H5389  H     0.85594   1.22108   1.10948   0.00000  Uiso   1.00
H5390  H     0.78622   1.01921   1.06360   0.00000  Uiso   1.00
C5391  C     0.63505   1.00778   1.10819   0.00000  Uiso   1.00
H5392  H     0.67942   1.01892   1.07173   0.00000  Uiso   1.00
C5393  C     0.56541   1.17189   1.22139   0.00000  Uiso   1.00
C5394  C     0.73535   1.06502   1.02170   0.00000  Uiso   1.00
C5395  C     0.71864   1.12940   1.13745   0.00000  Uiso   1.00
C5396  C     0.69029   1.09921   1.01186   0.00000  Uiso   1.00
C5397  C     0.80112   1.20779   1.00501   0.00000  Uiso   1.00
H5398  H     0.62149   1.01411   1.12420   0.00000  Uiso   1.00
C5399  C     0.71478   1.11002   1.02090   0.00000  Uiso   1.00
H5400  H     0.66228   1.05044   1.05906   0.00000  Uiso   1.00
H5401  H     0.82561   1.10896   1.15135   0.00000  Uiso   1.00
H5402  H     0.75124   1.11203   1.11207   0.00000  Uiso   1.00
C5403  C     0.75765   1.18762   1.17112   0.00000  Uiso   1.00
H5404  H     0.81561   1.12676   1.12194   0.00000  Uiso   1.00
C5405  C     0.74534   1.16219   1.16589   0.00000  Uiso   1.00
H5406  H     0.55847   1.10989   1.04437   0.00000  Uiso   1.00
C5407  C     0.87734   1.07288   1.18993   0.00000  Uiso   1.00
H5408  H     0.85480   1.05401   1.13014   0.00000  Uiso   1.00
H5409  H     0.82360   1.05772   1.14691   0.00000  Uiso   1.00
H5410  H     0.79350   1.10211   1.13918   0.00000  Uiso   1.00
C5411  C     0.73625   1.15525   1.13895   0.00000  Uiso   1.00
C5412  C     0.66453   1.03612   1.07596   0.00000  Uiso   1.00
C5413  C     0.73864   1.13831   1.18345   0.00000  Uiso   1.00
C5414  C     0.81077   1.17958   1.04502   0.00000  Uiso   1.00
C5415  C     0.74815   1.16877   1.11755   0.00000  Uiso   1.00
H5416  H     0.85095   1.04141   1.02394   0.00000  Uiso   1.00
H5417  H     0.61728   1.04572   0.97525   0.00000  Uiso   1.00
C5418  C     0.71748   1.14664   1.20353   0.00000  Uiso   1.00
C5419  C     0.83324   1.05760   1.12630   0.00000  Uiso   1.00
H5420  H     0.65187   1.16519   0.98291   0.00000  Uiso   1.00
H5421  H     0.79925   1.12134   1.07289   0.00000  Uiso   1.00
C5422  C     0.72994   1.11457   1.16321   0.00000  Uiso   1.00
N5423  N     0.81030   1.17798   1.06877   0.00000  Uiso   1.00
C5424  C     0.80449   1.10520   1.21356   0.00000  Uiso   1.00
H5425  H     0.74098   1.16184   1.09724   0.00000  Uiso   1.00
H5426  H     0.61974   1.02030   1.02101   0.00000  Uiso   1.00
O5427  O     0.75742   1.04851   1.02981   0.00000  Uiso   1.00
C5428  C     0.72819   1.11245   1.10974   0.00000  Uiso   1.00
H5429  H     0.71407   1.08608   1.21266   0.00000  Uiso   1.00
C5430  C     0.56842   1.12248   0.98712   0.00000  Uiso   1.00
C5431  C     0.62559   1.00091   1.03151   0.00000  Uiso   1.00
C5432  C     0.59326   1.08173   0.98334   0.00000  Uiso   1.00
H5433  H     0.79646   1.12852   1.17505   0.00000  Uiso   1.00
H5434  H     0.60732   1.05484   1.05910   0.00000  Uiso   1.00
C5435  C     0.81040   1.08062   1.08793   0.00000  Uiso   1.00
C5436  C     0.79938   0.99713   1.13286   0.00000  Uiso   1.00
C5437  C     0.87147   1.03531   1.01769   0.00000  Uiso   1.00
H5438  H     0.71324   1.10147   1.17200   0.00000  Uiso   1.00
C5439  C     0.59503   1.10827   0.99214   0.00000  Uiso   1.00
H5440  H     0.72004   1.09200   1.10911   0.00000  Uiso   1.00
H5441  H     0.78562   1.19777   1.08747   0.00000  Uiso   1.00
C5442  C     0.64387   1.10464   1.00173   0.00000  Uiso   1.00
C5443  C     0.88285   1.04936   0.99191   0.00000  Uiso   1.00
C5444  C     0.62490   1.18470   1.07973   0.00000  Uiso   1.00
C5445  C     0.67663   1.02969   1.20973   0.00000  Uiso   1.00
C5446  C     0.83563   1.00726   1.10277   0.00000  Uiso   1.00
C5447  C     0.80748   1.21367   0.97732   0.00000  Uiso   1.00
C5448  C     0.65244   1.20933   1.15443   0.00000  Uiso   1.00
C5449  C     0.68944   1.07117   1.00540   0.00000  Uiso   1.00
C5450  C     0.65083   1.19855   1.08071   0.00000  Uiso   1.00
C5451  C     0.82855   1.08682   1.11262   0.00000  Uiso   1.00
C5452  C     0.69759   1.21248   1.01131   0.00000  Uiso   1.00
N5453  N     0.60416   1.17291   1.07834   0.00000  Uiso   1.00
N5454  N     0.72155   1.16204   1.03352   0.00000  Uiso   1.00
C5455  C     0.72019   0.99742   1.18756   0.00000  Uiso   1.00
O5456  O     0.83084   1.09785   1.20666   0.00000  Uiso   1.00
H5457  H     0.88780   1.08080   1.05458   0.00000  Uiso   1.00
N5458  N     0.67120   1.07557   1.15654   0.00000  Uiso   1.00
C5459  C     0.61939   1.12064   1.00206   0.00000  Uiso   1.00
O5460  O     0.66567   1.05806   0.99421   0.00000  Uiso   1.00
C5461  C     0.73629   1.09316   1.02593   0.00000  Uiso   1.00
C5462  C     0.68730   1.13526   1.13618   0.00000  Uiso   1.00
H5463  H     0.62165   1.18532   1.17604   0.00000  Uiso   1.00
H5464  H     0.62075   0.98345   1.16251   0.00000  Uiso   1.00
C5465  C     0.64609   1.21260   1.20340   0.00000  Uiso   1.00
C5466  C     0.67950   1.05817   1.16991   0.00000  Uiso   1.00
H5467  H     0.65595   1.01144   1.11715   0.00000  Uiso   1.00
C5468  C     0.61784   1.06607   0.98472   0.00000  Uiso   1.00
C5469  C     0.66671   1.20153   1.05781   0.00000  Uiso   1.00
C5470  C     0.74966   1.02241   1.14645   0.00000  Uiso   1.00
C5471  C     0.56664   1.20964   1.18854   0.00000  Uiso   1.00
H5472  H     0.60525   1.18858   0.97658   0.00000  Uiso   1.00
C5473  C     0.71750   1.13934   1.02739   0.00000  Uiso   1.00
C5474  C     0.84936   1.12104   0.99131   0.00000  Uiso   1.00
C5475  C     0.71283   1.02170   1.17513   0.00000  Uiso   1.00
O5476  O     0.83457   1.13897   1.01016   0.00000  Uiso   1.00
H5477  H     0.86387   1.11428   1.12054   0.00000  Uiso   1.00
H5478  H     0.68004   1.15137   1.12195   0.00000  Uiso   1.00
H5479  H     0.84028   0.98309   0.98093   0.00000  Uiso   1.00
C5480  C     0.81887   1.03409   1.10908   0.00000  Uiso   1.00
C5481  C     0.55607   1.18377   1.19676   0.00000  Uiso   1.00
C5482  C     0.75663   0.99574   1.15739   0.00000  Uiso   1.00
H5483  H     0.61741   1.14215   1.00719   0.00000  Uiso   1.00
C5484  C     0.70693   0.98818   1.21078   0.00000  Uiso   1.00
C5485  C     0.64300   1.07630   0.99379   0.00000  Uiso   1.00
C5486  C     0.63282   0.99891   1.05967   0.00000  Uiso   1.00
C5487  C     0.71228   1.21750   0.98724   0.00000  Uiso   1.00
C5488  C     0.82285   1.16343   0.99847   0.00000  Uiso   1.00
C5489  C     0.76148   1.12759   1.20266   0.00000  Uiso   1.00
C5490  C     0.55787   1.16866   1.00367   0.00000  Uiso   1.00
H5491  H     0.85843   1.01134   1.10503   0.00000  Uiso   1.00
C5492  C     0.78788   1.12094   1.19480   0.00000  Uiso   1.00
H5493  H     0.86382   1.09253   1.02325   0.00000  Uiso   1.00
C5494  C     0.63316   0.97594   1.10162   0.00000  Uiso   1.00
C5495  C     0.84769   0.98472   1.14812   0.00000  Uiso   1.00
C5496  C     0.78150   0.98406   1.15005   0.00000  Uiso   1.00
H5497  H     0.86146   1.06011   1.06866   0.00000  Uiso   1.00
N5498  N     0.88583   1.07898   1.16872   0.00000  Uiso   1.00
N5499  N     0.80182   1.08097   0.98277   0.00000  Uiso   1.00
C5500  C     0.66797   1.18100   0.98434   0.00000  Uiso   1.00
C5501  C     0.63773   0.97307   1.07114   0.00000  Uiso   1.00
H5502  H     0.57854   1.21401   0.97418   0.00000  Uiso   1.00
H5503  H     0.87738   1.00248   1.06188   0.00000  Uiso   1.00
H5504  H     0.56927   1.03219   0.97472   0.00000  Uiso   1.00
C5505  C     0.86699   1.06629   1.21689   0.00000  Uiso   1.00
C5506  C     0.82727   0.98567   1.12489   0.00000  Uiso   1.00
O5507  O     0.74150   0.98111   1.17677   0.00000  Uiso   1.00
C5508  C     0.56481   1.07554   0.97341   0.00000  Uiso   1.00
H5509  H     0.56321   1.06450   1.22093   0.00000  Uiso   1.00
H5510  H     0.68140   1.10255   1.21893   0.00000  Uiso   1.00
C5511  C     0.56312   1.17073   0.97240   0.00000  Uiso   1.00
C5512  C     1.12197   0.42757   0.24061   0.00000  Uiso   1.00
C5513  C     0.97887   0.37543   0.38561   0.00000  Uiso   1.00
C5514  C     1.11334   0.28355   0.32196   0.00000  Uiso   1.00
H5515  H     0.94099   0.33559   0.30173   0.00000  Uiso   1.00
H5516  H     1.02655   0.43961   0.30561   0.00000  Uiso   1.00
H5517  H     1.00161   0.41380   0.30490   0.00000  Uiso   1.00
C5518  C     1.04705   0.38932   0.32164   0.00000  Uiso   1.00
H5519  H     1.02289   0.22626   0.38177   0.00000  Uiso   1.00
C5520  C     1.19053   0.31824   0.41348   0.00000  Uiso   1.00
H5521  H     1.11907   0.33450   0.34877   0.00000  Uiso   1.00
O5522  O     0.90774   0.29154   0.43894   0.00000  Uiso   1.00
C5523  C     1.07651   0.41046   0.39344   0.00000  Uiso   1.00
C5524  C     1.01314   0.42690   0.31915   0.00000  Uiso   1.00
C5525  C     1.08498   0.30869   0.29067   0.00000  Uiso   1.00
H5526  H     1.11260   0.35586   0.32063   0.00000  Uiso   1.00
H5527  H     1.05308   0.24879   0.27100   0.00000  Uiso   1.00
N5528  N     0.92337   0.29231   0.36984   0.00000  Uiso   1.00
H5529  H     1.11844   0.28326   0.34399   0.00000  Uiso   1.00
H5530  H     0.90074   0.24502   0.36334   0.00000  Uiso   1.00
C5531  C     1.16074   0.31069   0.22591   0.00000  Uiso   1.00
C5532  C     0.90822   0.23638   0.31914   0.00000  Uiso   1.00
C5533  C     1.08709   0.23750   0.31812   0.00000  Uiso   1.00
C5534  C     1.21499   0.25971   0.29786   0.00000  Uiso   1.00
C5535  C     1.06772   0.27135   0.34723   0.00000  Uiso   1.00
H5536  H     1.15403   0.32643   0.31060   0.00000  Uiso   1.00
H5537  H     1.06660   0.38256   0.33189   0.00000  Uiso   1.00
C5538  C     1.02452   0.40897   0.38775   0.00000  Uiso   1.00
C5539  C     1.14201   0.38379   0.22420   0.00000  Uiso   1.00
C5540  C     0.95394   0.32249   0.26117   0.00000  Uiso   1.00
C5541  C     1.08177   0.47125   0.43704   0.00000  Uiso   1.00
C5542  C     1.21171   0.46194   0.26542   0.00000  Uiso   1.00
H5543  H     0.98666   0.36997   0.34342   0.00000  Uiso   1.00
C5544  C     1.03097   0.41054   0.33844   0.00000  Uiso   1.00
H5545  H     1.08222   0.42818   0.27792   0.00000  Uiso   1.00
C5546  C     1.05190   0.42507   0.38393   0.00000  Uiso   1.00
H5547  H     1.19112   0.32649   0.43433   0.00000  Uiso   1.00
C5548  C     1.21558   0.32602   0.36698   0.00000  Uiso   1.00
H5549  H     0.99533   0.30233   0.25706   0.00000  Uiso   1.00
O5550  O     1.16036   0.36200   0.22965   0.00000  Uiso   1.00
C5551  C     1.21816   0.46846   0.23557   0.00000  Uiso   1.00
C5552  C     1.03306   0.26932   0.39263   0.00000  Uiso   1.00
H5553  H     1.10945   0.42974   0.29995   0.00000  Uiso   1.00
C5554  C     0.94187   0.34452   0.28119   0.00000  Uiso   1.00
H5555  H     1.15606   0.40837   0.25895   0.00000  Uiso   1.00
C5556  C     1.20906   0.33688   0.39627   0.00000  Uiso   1.00
C5557  C     0.98402   0.39022   0.41036   0.00000  Uiso   1.00
C5558  C     0.92304   0.41850   0.36031   0.00000  Uiso   1.00
H5559  H     0.99670   0.43492   0.23190   0.00000  Uiso   1.00
C5560  C     1.05872   0.31576   0.25107   0.00000  Uiso   1.00
C5561  C     1.03509   0.33361   0.44655   0.00000  Uiso   1.00
H5562  H     1.08279   0.30889   0.36696   0.00000  Uiso   1.00
C5563  C     0.94386   0.35036   0.40917   0.00000  Uiso   1.00
C5564  C     1.06637   0.29320   0.36535   0.00000  Uiso   1.00
O5565  O     0.95689   0.35725   0.38310   0.00000  Uiso   1.00
C5566  C     1.01487   0.39918   0.36256   0.00000  Uiso   1.00
C5567  C     1.05185   0.43038   0.35420   0.00000  Uiso   1.00
O5568  O     1.05070   0.31567   0.40545   0.00000  Uiso   1.00
N5569  N     0.89652   0.39934   0.28101   0.00000  Uiso   1.00
H5570  H     0.89899   0.24065   0.45787   0.00000  Uiso   1.00
C5571  C     1.03590   0.24541   0.37582   0.00000  Uiso   1.00
C5572  C     1.10485   0.33759   0.33034   0.00000  Uiso   1.00
N5573  N     1.08077   0.36223   0.45248   0.00000  Uiso   1.00
H5574  H     0.91918   0.46003   0.32052   0.00000  Uiso   1.00
C5575  C     1.07333   0.28252   0.29476   0.00000  Uiso   1.00
H5576  H     1.10268   0.40810   0.44323   0.00000  Uiso   1.00
C5577  C     0.93879   0.29474   0.25652   0.00000  Uiso   1.00
H5578  H     1.17926   0.30033   0.35955   0.00000  Uiso   1.00
C5579  C     1.09568   0.43079   0.40635   0.00000  Uiso   1.00
H5580  H     1.08757   0.39906   0.37724   0.00000  Uiso   1.00
C5581  C     0.99605   0.29145   0.45188   0.00000  Uiso   1.00
C5582  C     0.89838   0.45012   0.41383   0.00000  Uiso   1.00
C5583  C     1.20152   0.22663   0.38783   0.00000  Uiso   1.00
H5584  H     0.93492   0.24308   0.28384   0.00000  Uiso   1.00
H5585  H     1.03638   0.36954   0.31727   0.00000  Uiso   1.00
H5586  H     1.05298   0.39709   0.30247   0.00000  Uiso   1.00
H5587  H     0.95549   0.36492   0.28162   0.00000  Uiso   1.00
H5588  H     1.13810   0.34082   0.28003   0.00000  Uiso   1.00
H5589  H     1.10765   0.44825   0.36457   0.00000  Uiso   1.00
C5590  C     1.14117   0.40673   0.24212   0.00000  Uiso   1.00
H5591  H     1.21779   0.37173   0.26703   0.00000  Uiso   1.00
H5592  H     1.21351   0.37982   0.38257   0.00000  Uiso   1.00
C5593  C     0.99292   0.37880   0.36266   0.00000  Uiso   1.00
H5594  H     0.99514   0.44079   0.32549   0.00000  Uiso   1.00
C5595  C     1.03348   0.31293   0.42743   0.00000  Uiso   1.00
H5596  H     0.91203   0.29652   0.31158   0.00000  Uiso   1.00
C5597  C     1.05144   0.28749   0.25050   0.00000  Uiso   1.00
H5598  H     1.07246   0.43027   0.34576   0.00000  Uiso   1.00
C5599  C     1.00973   0.40420   0.41155   0.00000  Uiso   1.00
C5600  C     1.07614   0.45147   0.41661   0.00000  Uiso   1.00
H5601  H     1.08339   0.34110   0.33692   0.00000  Uiso   1.00
H5602  H     0.94553   0.42181   0.36394   0.00000  Uiso   1.00
H5603  H     1.15280   0.45332   0.28412   0.00000  Uiso   1.00
C5604  C     1.05346   0.24677   0.35392   0.00000  Uiso   1.00
C5605  C     1.19920   0.30884   0.35173   0.00000  Uiso   1.00
C5606  C     0.92973   0.36257   0.45460   0.00000  Uiso   1.00
H5607  H     0.92192   0.40800   0.34074   0.00000  Uiso   1.00
H5608  H     1.21528   0.28659   0.46757   0.00000  Uiso   1.00
C5609  C     1.06393   0.22282   0.33446   0.00000  Uiso   1.00
C5610  C     1.09843   0.44289   0.28406   0.00000  Uiso   1.00
C5611  C     1.11587   0.41859   0.42658   0.00000  Uiso   1.00
H5612  H     1.13303   0.42813   0.38170   0.00000  Uiso   1.00
C5613  C     1.05763   0.27085   0.27283   0.00000  Uiso   1.00
C5614  C     0.95684   0.33564   0.23316   0.00000  Uiso   1.00
C5615  C     1.20447   0.23449   0.28811   0.00000  Uiso   1.00
C5616  C     0.98430   0.31838   0.27059   0.00000  Uiso   1.00
C5617  C     0.94716   0.36673   0.43212   0.00000  Uiso   1.00
H5618  H     1.08321   0.34781   0.27038   0.00000  Uiso   1.00
C5619  C     1.07511   0.32601   0.27130   0.00000  Uiso   1.00
O5620  O     1.19835   0.27610   0.31462   0.00000  Uiso   1.00
H5621  H     0.96568   0.37790   0.24169   0.00000  Uiso   1.00
C5622  C     0.91341   0.22729   0.22992   0.00000  Uiso   1.00
C5623  C     1.21751   0.44522   0.44644   0.00000  Uiso   1.00
H5624  H     1.14858   0.30329   0.28449   0.00000  Uiso   1.00
O5625  O     1.05097   0.33460   0.23105   0.00000  Uiso   1.00
C5626  C     1.21237   0.29610   0.32948   0.00000  Uiso   1.00
H5627  H     0.91454   0.40549   0.37711   0.00000  Uiso   1.00
H5628  H     1.19116   0.45226   0.26668   0.00000  Uiso   1.00
H5629  H     0.91231   0.23742   0.25054   0.00000  Uiso   1.00
C5630  C     1.08492   0.26861   0.32067   0.00000  Uiso   1.00
H5631  H     1.08868   0.23080   0.29752   0.00000  Uiso   1.00
H5632  H     1.19904   0.29728   0.41402   0.00000  Uiso   1.00
H5633  H     1.13005   0.27322   0.31178   0.00000  Uiso   1.00
H5634  H     1.17869   0.37085   0.38201   0.00000  Uiso   1.00
O5635  O     1.03716   0.27624   0.22907   0.00000  Uiso   1.00
C5636  C     0.89084   0.28792   0.30982   0.00000  Uiso   1.00
H5637  H     0.92056   0.35283   0.27522   0.00000  Uiso   1.00
C5638  C     0.92838   0.32689   0.41031   0.00000  Uiso   1.00
C5639  C     1.11615   0.44408   0.38518   0.00000  Uiso   1.00
C5640  C     1.19822   0.36716   0.39277   0.00000  Uiso   1.00
O5641  O     0.88877   0.46001   0.46078   0.00000  Uiso   1.00
H5642  H     1.13067   0.40377   0.41912   0.00000  Uiso   1.00
C5643  C     1.04831   0.29310   0.38748   0.00000  Uiso   1.00
H5644  H     0.96958   0.46208   0.34809   0.00000  Uiso   1.00
H5645  H     1.16862   0.31693   0.40571   0.00000  Uiso   1.00
C5646  C     0.91672   0.31963   0.43562   0.00000  Uiso   1.00
H5647  H     0.94173   0.26633   0.31141   0.00000  Uiso   1.00
H5648  H     0.93529   0.24878   0.35316   0.00000  Uiso   1.00
H5649  H     0.99555   0.33858   0.27054   0.00000  Uiso   1.00
O5650  O     1.01405   0.26806   0.41301   0.00000  Uiso   1.00
C5651  C     0.92563   0.30825   0.38782   0.00000  Uiso   1.00
C5652  C     1.05999   0.34988   0.44977   0.00000  Uiso   1.00
H5653  H     1.04261   0.45097   0.35083   0.00000  Uiso   1.00
H5654  H     0.95290   0.27812   0.26683   0.00000  Uiso   1.00
O5655  O     0.96551   0.38905   0.43250   0.00000  Uiso   1.00
N5656  N     1.20492   0.31084   0.25667   0.00000  Uiso   1.00
C5657  C     1.13756   0.32099   0.29377   0.00000  Uiso   1.00
H5658  H     0.98449   0.30933   0.29202   0.00000  Uiso   1.00
C5659  C     1.10996   0.31390   0.31018   0.00000  Uiso   1.00
C5660  C     0.90461   0.44392   0.35993   0.00000  Uiso   1.00
H5661  H     1.01444   0.41177   0.43121   0.00000  Uiso   1.00
H5662  H     1.12778   0.43513   0.43560   0.00000  Uiso   1.00
C5663  C     1.01354   0.29111   0.42901   0.00000  Uiso   1.00
C5664  C     1.05098   0.45180   0.40169   0.00000  Uiso   1.00
H5665  H     1.10583   0.23324   0.32945   0.00000  Uiso   1.00
C5666  C     0.90777   0.45814   0.38842   0.00000  Uiso   1.00
H5667  H     0.91768   0.29308   0.26758   0.00000  Uiso   1.00
C5668  C     0.93519   0.24574   0.30637   0.00000  Uiso   1.00
C5669  C     0.91662   0.33774   0.45829   0.00000  Uiso   1.00
H5670  H     1.06964   0.39393   0.40660   0.00000  Uiso   1.00
C5671  C     0.90193   0.28462   0.46665   0.00000  Uiso   1.00
C5672  C     0.91608   0.23571   0.34897   0.00000  Uiso   1.00
C5673  C     1.05560   0.44071   0.23203   0.00000  Uiso   1.00
C5674  C     1.20710   0.42347   0.46195   0.00000  Uiso   1.00
C5675  C     1.18445   0.31085   0.24362   0.00000  Uiso   1.00
C5676  C     1.11480   0.45197   0.25935   0.00000  Uiso   1.00
H5677  H     1.19696   0.37640   0.41431   0.00000  Uiso   1.00
C5678  C     0.90230   0.46629   0.43683   0.00000  Uiso   1.00
O5679  O     1.15452   0.26075   0.23196   0.00000  Uiso   1.00
H5680  H     1.05399   0.44436   0.25460   0.00000  Uiso   1.00
H5681  H     1.02814   0.22981   0.30688   0.00000  Uiso   1.00
N5682  N     1.17897   0.23117   0.38609   0.00000  Uiso   1.00
C5683  C     0.97842   0.27022   0.45841   0.00000  Uiso   1.00
C5684  C     1.13826   0.23778   0.22496   0.00000  Uiso   1.00
C5685  C     0.96158   0.36302   0.22484   0.00000  Uiso   1.00
H5686  H     1.08851   0.46065   0.29400   0.00000  Uiso   1.00
C5687  C     0.91220   0.46915   0.34132   0.00000  Uiso   1.00
C5688  C     1.14102   0.46783   0.27100   0.00000  Uiso   1.00
H5689  H     1.20852   0.38395   0.23666   0.00000  Uiso   1.00
H5690  H     1.12861   0.46137   0.39522   0.00000  Uiso   1.00
C5691  C     0.93665   0.29202   0.22596   0.00000  Uiso   1.00
N5692  N     0.96299   0.25372   0.46493   0.00000  Uiso   1.00
H5693  H     0.95288   0.23324   0.31348   0.00000  Uiso   1.00
H5694  H     1.20559   0.42621   0.22714   0.00000  Uiso   1.00
C5695  C     1.01573   0.33628   0.46729   0.00000  Uiso   1.00
C5696  C     1.20362   0.46952   0.44716   0.00000  Uiso   1.00
C5697  C     1.17948   0.22621   0.29730   0.00000  Uiso   1.00
H5698  H     0.96011   0.25376   0.22604   0.00000  Uiso   1.00
H5699  H     1.05060   0.41874   0.22869   0.00000  Uiso   1.00
H5700  H     1.21949   0.35095   0.23723   0.00000  Uiso   1.00
C5701  C     0.99510   0.31528   0.46845   0.00000  Uiso   1.00
H5702  H     1.09746   0.46766   0.45331   0.00000  Uiso   1.00
C5703  C     1.10115   0.47035   0.23571   0.00000  Uiso   1.00
N5704  N     0.94900   0.27994   0.69983   0.00000  Uiso   1.00
C5705  C     1.07478   0.25484   0.64912   0.00000  Uiso   1.00
H5706  H     1.17965   0.29497   0.67807   0.00000  Uiso   1.00
O5707  O     1.16700   0.35580   0.71600   0.00000  Uiso   1.00
C5708  C     0.89920   0.43928   0.65177   0.00000  Uiso   1.00
C5709  C     0.95197   0.36892   0.54210   0.00000  Uiso   1.00
H5710  H     0.97387   0.45804   0.69939   0.00000  Uiso   1.00
C5711  C     0.93102   0.36832   0.58907   0.00000  Uiso   1.00
C5712  C     0.95290   0.34497   0.52454   0.00000  Uiso   1.00
O5713  O     0.90277   0.33315   0.48208   0.00000  Uiso   1.00
H5714  H     1.01248   0.39725   0.51996   0.00000  Uiso   1.00
H5715  H     0.89655   0.38668   0.52861   0.00000  Uiso   1.00
C5716  C     0.97410   0.34123   0.50595   0.00000  Uiso   1.00
C5717  C     1.09564   0.46830   0.60881   0.00000  Uiso   1.00
C5718  C     1.15978   0.39766   0.57331   0.00000  Uiso   1.00
H5719  H     1.06688   0.36862   0.60318   0.00000  Uiso   1.00
H5720  H     1.04821   0.40985   0.58347   0.00000  Uiso   1.00
H5721  H     0.95287   0.44268   0.51840   0.00000  Uiso   1.00
C5722  C     1.08002   0.38697   0.56322   0.00000  Uiso   1.00
C5723  C     0.89997   0.37626   0.54826   0.00000  Uiso   1.00
C5724  C     1.10910   0.42647   0.56534   0.00000  Uiso   1.00
C5725  C     0.92793   0.38488   0.47298   0.00000  Uiso   1.00
C5726  C     1.08611   0.44154   0.60331   0.00000  Uiso   1.00
H5727  H     0.90660   0.39659   0.65359   0.00000  Uiso   1.00
C5728  C     0.92954   0.43940   0.66268   0.00000  Uiso   1.00
C5729  C     1.14928   0.26212   0.67278   0.00000  Uiso   1.00
H5730  H     0.94272   0.43426   0.64510   0.00000  Uiso   1.00
C5731  C     1.11005   0.39649   0.56749   0.00000  Uiso   1.00
C5732  C     1.19137   0.38400   0.49996   0.00000  Uiso   1.00
C5733  C     0.98969   0.47091   0.70980   0.00000  Uiso   1.00
C5734  C     1.02769   0.22899   0.63110   0.00000  Uiso   1.00
H5735  H     0.93703   0.46680   0.56357   0.00000  Uiso   1.00
C5736  C     0.99143   0.41294   0.60073   0.00000  Uiso   1.00
C5737  C     0.98694   0.45419   0.57509   0.00000  Uiso   1.00
C5738  C     1.04236   0.41246   0.68505   0.00000  Uiso   1.00
C5739  C     1.13361   0.38503   0.69654   0.00000  Uiso   1.00
C5740  C     0.93793   0.24137   0.59551   0.00000  Uiso   1.00
C5741  C     1.14395   0.26105   0.70442   0.00000  Uiso   1.00
O5742  O     0.95947   0.22360   0.59956   0.00000  Uiso   1.00
N5743  N     0.92585   0.40319   0.48840   0.00000  Uiso   1.00
H5744  H     1.18110   0.24773   0.64633   0.00000  Uiso   1.00
C5745  C     1.12675   0.40903   0.68227   0.00000  Uiso   1.00
C5746  C     0.99280   0.38526   0.51966   0.00000  Uiso   1.00
O5747  O     1.01730   0.41140   0.64207   0.00000  Uiso   1.00
C5748  C     1.12452   0.22802   0.64762   0.00000  Uiso   1.00
C5749  C     1.22041   0.44962   0.59741   0.00000  Uiso   1.00
C5750  C     1.12306   0.25495   0.65827   0.00000  Uiso   1.00
H5751  H     1.01238   0.47066   0.52428   0.00000  Uiso   1.00
C5752  C     1.17251   0.42774   0.69204   0.00000  Uiso   1.00
C5753  C     1.07551   0.22698   0.63893   0.00000  Uiso   1.00
C5754  C     0.99563   0.36080   0.50432   0.00000  Uiso   1.00
C5755  C     0.89174   0.41095   0.64398   0.00000  Uiso   1.00
C5756  C     1.18418   0.36086   0.51634   0.00000  Uiso   1.00
C5757  C     1.16773   0.45113   0.47854   0.00000  Uiso   1.00
C5758  C     0.89756   0.25546   0.56945   0.00000  Uiso   1.00
C5759  C     1.18351   0.42653   0.47835   0.00000  Uiso   1.00
H5760  H     0.89465   0.40775   0.62097   0.00000  Uiso   1.00
C5761  C     1.00683   0.42647   0.62123   0.00000  Uiso   1.00
C5762  C     0.89815   0.26323   0.69160   0.00000  Uiso   1.00
H5763  H     0.91104   0.37156   0.60068   0.00000  Uiso   1.00
C5764  C     0.97645   0.46667   0.54847   0.00000  Uiso   1.00
N5765  N     1.20951   0.24602   0.59286   0.00000  Uiso   1.00
C5766  C     1.20292   0.43140   0.58448   0.00000  Uiso   1.00
O5767  O     1.10261   0.40813   0.66664   0.00000  Uiso   1.00
C5768  C     0.89236   0.23549   0.69134   0.00000  Uiso   1.00
H5769  H     1.08954   0.34614   0.58174   0.00000  Uiso   1.00
C5770  C     0.92165   0.23915   0.57211   0.00000  Uiso   1.00
C5771  C     1.07315   0.36273   0.58163   0.00000  Uiso   1.00
H5772  H     0.98720   0.39075   0.60354   0.00000  Uiso   1.00
C5773  C     0.92877   0.37945   0.55964   0.00000  Uiso   1.00
N5774  N     1.12021   0.45704   0.50174   0.00000  Uiso   1.00
H5775  H     1.16326   0.29135   0.64301   0.00000  Uiso   1.00
C5776  C     0.98130   0.42716   0.57830   0.00000  Uiso   1.00
H5777  H     0.93709   0.33056   0.52461   0.00000  Uiso   1.00
O5778  O     1.02853   0.30814   0.71007   0.00000  Uiso   1.00
C5779  C     1.14147   0.45450   0.49179   0.00000  Uiso   1.00
H5780  H     1.14499   0.30560   0.67208   0.00000  Uiso   1.00
O5781  O     0.97324   0.31679   0.48867   0.00000  Uiso   1.00
C5782  C     0.97247   0.38992   0.53874   0.00000  Uiso   1.00
C5783  C     1.03120   0.42599   0.66283   0.00000  Uiso   1.00
C5784  C     0.96403   0.41594   0.55352   0.00000  Uiso   1.00
C5785  C     1.08177   0.43843   0.57276   0.00000  Uiso   1.00
C5786  C     1.07605   0.46723   0.56225   0.00000  Uiso   1.00
C5787  C     1.21587   0.37087   0.71800   0.00000  Uiso   1.00
O5788  O     0.95371   0.27264   0.63083   0.00000  Uiso   1.00
H5789  H     1.08426   0.46980   0.54077   0.00000  Uiso   1.00
C5790  C     1.03987   0.38324   0.68531   0.00000  Uiso   1.00
C5791  C     1.00113   0.26870   0.64297   0.00000  Uiso   1.00
H5792  H     0.90566   0.29598   0.62745   0.00000  Uiso   1.00
H5793  H     1.09941   0.28912   0.66801   0.00000  Uiso   1.00
H5794  H     1.02555   0.31605   0.69254   0.00000  Uiso   1.00
C5795  C     1.03771   0.45412   0.65928   0.00000  Uiso   1.00
C5796  C     1.05116   0.46847   0.68090   0.00000  Uiso   1.00
C5797  C     0.98012   0.23150   0.61833   0.00000  Uiso   1.00
C5798  C     0.99960   0.29687   0.65266   0.00000  Uiso   1.00
C5799  C     1.20284   0.40303   0.59400   0.00000  Uiso   1.00
H5800  H     0.98964   0.43645   0.52238   0.00000  Uiso   1.00
H5801  H     0.92646   0.42088   0.57984   0.00000  Uiso   1.00
C5802  C     1.06050   0.45424   0.70428   0.00000  Uiso   1.00
H5803  H     1.18574   0.23347   0.67997   0.00000  Uiso   1.00
O5804  O     1.17322   0.40538   0.49545   0.00000  Uiso   1.00
C5805  C     1.10068   0.42907   0.64789   0.00000  Uiso   1.00
O5806  O     1.20944   0.39737   0.71099   0.00000  Uiso   1.00
C5807  C     0.90987   0.27977   0.61101   0.00000  Uiso   1.00
H5808  H     1.22202   0.27666   0.52185   0.00000  Uiso   1.00
H5809  H     1.13361   0.36026   0.57694   0.00000  Uiso   1.00
H5810  H     1.04860   0.41866   0.54848   0.00000  Uiso   1.00
H5811  H     1.16502   0.36059   0.52793   0.00000  Uiso   1.00
O5812  O     1.18335   0.44140   0.56571   0.00000  Uiso   1.00
C5813  C     1.06276   0.41301   0.56650   0.00000  Uiso   1.00
C5814  C     0.93301   0.41122   0.56045   0.00000  Uiso   1.00
O5815  O     1.18290   0.38446   0.58504   0.00000  Uiso   1.00
O5816  O     1.05113   0.26965   0.64861   0.00000  Uiso   1.00
C5817  C     1.21549   0.38092   0.48258   0.00000  Uiso   1.00
C5818  C     1.19363   0.44739   0.69099   0.00000  Uiso   1.00
C5819  C     1.17281   0.29835   0.53272   0.00000  Uiso   1.00
C5820  C     1.01373   0.45485   0.61733   0.00000  Uiso   1.00
C5821  C     1.16944   0.23920   0.66322   0.00000  Uiso   1.00
H5822  H     1.08795   0.35636   0.53382   0.00000  Uiso   1.00
C5823  C     1.02681   0.25626   0.64130   0.00000  Uiso   1.00
C5824  C     0.89082   0.29729   0.51396   0.00000  Uiso   1.00
C5825  C     1.14566   0.43099   0.68134   0.00000  Uiso   1.00
N5826  N     1.03924   0.35921   0.68436   0.00000  Uiso   1.00
C5827  C     1.13426   0.43878   0.56160   0.00000  Uiso   1.00
H5828  H     1.12898   0.27665   0.70953   0.00000  Uiso   1.00
C5829  C     0.97777   0.25750   0.63027   0.00000  Uiso   1.00
C5830  C     1.18057   0.40228   0.70273   0.00000  Uiso   1.00
N5831  N     0.99836   0.31899   0.65911   0.00000  Uiso   1.00
C5832  C     1.05688   0.42630   0.70503   0.00000  Uiso   1.00
C5833  C     0.93349   0.26331   0.61346   0.00000  Uiso   1.00
C5834  C     0.88934   0.24987   0.49852   0.00000  Uiso   1.00
H5835  H     0.89211   0.36422   0.68389   0.00000  Uiso   1.00
H5836  H     1.15583   0.31130   0.53932   0.00000  Uiso   1.00
H5837  H     1.20111   0.30043   0.58288   0.00000  Uiso   1.00
H5838  H     1.05627   0.37358   0.52817   0.00000  Uiso   1.00
C5839  C     1.09799   0.26783   0.65992   0.00000  Uiso   1.00
H5840  H     0.91238   0.45731   0.61394   0.00000  Uiso   1.00
C5841  C     1.19468   0.35146   0.71992   0.00000  Uiso   1.00
H5842  H     1.07523   0.40281   0.62276   0.00000  Uiso   1.00
C5843  C     0.89528   0.46037   0.62919   0.00000  Uiso   1.00
C5844  C     0.92675   0.27251   0.69668   0.00000  Uiso   1.00
H5845  H     0.92180   0.42078   0.54377   0.00000  Uiso   1.00
H5846  H     1.16159   0.26546   0.71682   0.00000  Uiso   1.00
C5847  C     1.16055   0.28951   0.66613   0.00000  Uiso   1.00
C5848  C     0.96915   0.44020   0.53334   0.00000  Uiso   1.00
H5849  H     1.21491   0.33323   0.57760   0.00000  Uiso   1.00
H5850  H     1.17960   0.32595   0.57686   0.00000  Uiso   1.00
C5851  C     1.13473   0.38290   0.57312   0.00000  Uiso   1.00
H5852  H     1.17023   0.29068   0.51052   0.00000  Uiso   1.00
H5853  H     1.17085   0.27989   0.54690   0.00000  Uiso   1.00
H5854  H     1.08600   0.38979   0.51989   0.00000  Uiso   1.00
N5855  N     1.09834   0.34679   0.70240   0.00000  Uiso   1.00
C5856  C     1.00169   0.46863   0.59464   0.00000  Uiso   1.00
C5857  C     1.11694   0.45329   0.65026   0.00000  Uiso   1.00
O5858  O     1.01797   0.35831   0.48617   0.00000  Uiso   1.00
C5859  C     0.89792   0.30503   0.48656   0.00000  Uiso   1.00
H5860  H     1.05324   0.35097   0.57387   0.00000  Uiso   1.00
H5861  H     1.13488   0.45924   0.55237   0.00000  Uiso   1.00
H5862  H     0.89454   0.35517   0.54286   0.00000  Uiso   1.00
H5863  H     1.13608   0.24090   0.71364   0.00000  Uiso   1.00
C5864  C     1.15944   0.42559   0.56537   0.00000  Uiso   1.00
C5865  C     1.07715   0.37585   0.53355   0.00000  Uiso   1.00
C5866  C     1.08459   0.42352   0.62472   0.00000  Uiso   1.00
C5867  C     1.11455   0.36398   0.69880   0.00000  Uiso   1.00
O5868  O     1.13809   0.45606   0.66922   0.00000  Uiso   1.00
C5869  C     1.16063   0.38073   0.70506   0.00000  Uiso   1.00
H5870  H     0.94749   0.37885   0.60332   0.00000  Uiso   1.00
H5871  H     0.93312   0.42562   0.68094   0.00000  Uiso   1.00
C5872  C     1.20237   0.33924   0.51905   0.00000  Uiso   1.00
H5873  H     0.93631   0.34512   0.58974   0.00000  Uiso   1.00
C5874  C     1.19954   0.31357   0.53801   0.00000  Uiso   1.00
O5875  O     1.02778   0.47011   0.63654   0.00000  Uiso   1.00
H5876  H     0.93883   0.45815   0.66882   0.00000  Uiso   1.00
C5877  C     1.19921   0.31840   0.57030   0.00000  Uiso   1.00
C5878  C     1.22054   0.36703   0.62267   0.00000  Uiso   1.00
N5879  N     1.21154   0.46358   0.69009   0.00000  Uiso   1.00
N5880  N     1.21640   0.34585   0.63288   0.00000  Uiso   1.00
C5881  C     0.89080   0.27344   0.59051   0.00000  Uiso   1.00
H5882  H     1.05487   0.47093   0.56164   0.00000  Uiso   1.00
C5883  C     0.89783   0.25683   0.47331   0.00000  Uiso   1.00
H5884  H     0.97844   0.32283   0.72108   0.00000  Uiso   1.00
H5885  H     0.93180   0.45182   0.72180   0.00000  Uiso   1.00
H5886  H     1.17432   0.33112   0.83607   0.00000  Uiso   1.00
C5887  C     1.03096   0.45314   0.91790   0.00000  Uiso   1.00
O5888  O     0.94127   0.25234   0.89839   0.00000  Uiso   1.00
C5889  C     1.02477   0.33921   0.86213   0.00000  Uiso   1.00
H5890  H     1.12696   0.43028   0.93501   0.00000  Uiso   1.00
C5891  C     1.00342   0.41409   0.92621   0.00000  Uiso   1.00
O5892  O     0.94317   0.29746   0.86232   0.00000  Uiso   1.00
C5893  C     1.02605   0.26252   0.89907   0.00000  Uiso   1.00
H5894  H     0.97096   0.24010   0.74467   0.00000  Uiso   1.00
O5895  O     0.95460   0.42088   0.93845   0.00000  Uiso   1.00
C5896  C     0.98607   0.34730   0.75812   0.00000  Uiso   1.00
H5897  H     0.92247   0.26352   0.77274   0.00000  Uiso   1.00
H5898  H     0.98742   0.43572   0.84906   0.00000  Uiso   1.00
C5899  C     0.99478   0.40674   0.79807   0.00000  Uiso   1.00
H5900  H     1.15228   0.43306   0.84044   0.00000  Uiso   1.00
C5901  C     0.97984   0.43126   0.92842   0.00000  Uiso   1.00
C5902  C     1.00701   0.44088   0.83632   0.00000  Uiso   1.00
N5903  N     0.91558   0.24244   0.96731   0.00000  Uiso   1.00
C5904  C     1.08411   0.24515   0.85269   0.00000  Uiso   1.00
H5905  H     0.94518   0.37727   0.80345   0.00000  Uiso   1.00
H5906  H     1.11734   0.42505   0.83760   0.00000  Uiso   1.00
H5907  H     1.22166   0.33237   0.92249   0.00000  Uiso   1.00
H5908  H     0.92991   0.32554   0.74674   0.00000  Uiso   1.00
H5909  H     1.20028   0.24841   0.82443   0.00000  Uiso   1.00
H5910  H     1.21619   0.28125   0.85974   0.00000  Uiso   1.00
C5911  C     1.16641   0.40553   0.78929   0.00000  Uiso   1.00
H5912  H     1.17215   0.46349   0.79640   0.00000  Uiso   1.00
C5913  C     1.02238   0.38969   0.83602   0.00000  Uiso   1.00
C5914  C     0.93255   0.30069   0.88908   0.00000  Uiso   1.00
O5915  O     1.05850   0.35805   0.89442   0.00000  Uiso   1.00
H5916  H     0.90511   0.23269   0.78298   0.00000  Uiso   1.00
N5917  N     1.02159   0.31973   0.95019   0.00000  Uiso   1.00
C5918  C     1.20116   0.29938   0.95541   0.00000  Uiso   1.00
C5919  C     0.97976   0.37785   0.94759   0.00000  Uiso   1.00
H5920  H     0.92872   0.38722   0.75241   0.00000  Uiso   1.00
C5921  C     1.08641   0.42336   0.74323   0.00000  Uiso   1.00
C5922  C     0.97505   0.23996   0.76805   0.00000  Uiso   1.00
H5923  H     1.15047   0.45778   0.93319   0.00000  Uiso   1.00
H5924  H     1.19013   0.28680   0.93873   0.00000  Uiso   1.00
C5925  C     1.08644   0.29909   0.83063   0.00000  Uiso   1.00
N5926  N     0.90819   0.42552   0.88302   0.00000  Uiso   1.00
O5927  O     1.13330   0.30377   0.84673   0.00000  Uiso   1.00
C5928  C     1.13485   0.43147   0.82481   0.00000  Uiso   1.00
H5929  H     1.04148   0.44040   0.78954   0.00000  Uiso   1.00
C5930  C     1.02894   0.42557   0.92204   0.00000  Uiso   1.00
O5931  O     1.00297   0.38622   0.93235   0.00000  Uiso   1.00
H5932  H     1.21050   0.41549   0.82514   0.00000  Uiso   1.00
N5933  N     1.02046   0.29568   0.79961   0.00000  Uiso   1.00
C5934  C     0.89713   0.41648   0.78579   0.00000  Uiso   1.00
C5935  C     1.03997   0.29015   0.81286   0.00000  Uiso   1.00
C5936  C     0.99166   0.37399   0.79900   0.00000  Uiso   1.00
C5937  C     1.06115   0.25455   0.83813   0.00000  Uiso   1.00
H5938  H     1.05745   0.40635   0.79840   0.00000  Uiso   1.00
O5939  O     1.06943   0.32864   0.74652   0.00000  Uiso   1.00
C5940  C     1.00887   0.34272   0.83831   0.00000  Uiso   1.00
C5941  C     1.08413   0.32356   0.92103   0.00000  Uiso   1.00
C5942  C     1.02283   0.32569   0.73061   0.00000  Uiso   1.00
O5943  O     0.89068   0.35134   0.92452   0.00000  Uiso   1.00
H5944  H     0.99870   0.32520   0.82891   0.00000  Uiso   1.00
C5945  C     1.22092   0.23741   0.86276   0.00000  Uiso   1.00
N5946  N     0.93043   0.36702   0.86442   0.00000  Uiso   1.00
C5947  C     0.94475   0.24876   0.87014   0.00000  Uiso   1.00
H5948  H     0.96343   0.47116   0.92335   0.00000  Uiso   1.00
N5949  N     1.11763   0.36147   0.93494   0.00000  Uiso   1.00
C5950  C     1.03926   0.38574   0.85889   0.00000  Uiso   1.00
H5951  H     0.99967   0.45831   0.82289   0.00000  Uiso   1.00
O5952  O     0.90308   0.43258   0.76238   0.00000  Uiso   1.00
O5953  O     1.02379   0.31309   0.87479   0.00000  Uiso   1.00
C5954  C     1.04045   0.36067   0.87282   0.00000  Uiso   1.00
H5955  H     0.97404   0.41382   0.80428   0.00000  Uiso   1.00
C5956  C     1.15587   0.36821   0.81845   0.00000  Uiso   1.00
H5957  H     1.04851   0.40323   0.86987   0.00000  Uiso   1.00
H5958  H     1.02421   0.44827   0.84859   0.00000  Uiso   1.00
C5959  C     1.04693   0.28248   0.90508   0.00000  Uiso   1.00
H5960  H     1.18219   0.40788   0.84825   0.00000  Uiso   1.00
C5961  C     1.10780   0.26125   0.85445   0.00000  Uiso   1.00
H5962  H     1.19883   0.34887   0.78610   0.00000  Uiso   1.00
C5963  C     1.06305   0.32934   0.90222   0.00000  Uiso   1.00
C5964  C     0.98236   0.45899   0.92006   0.00000  Uiso   1.00
C5965  C     0.94366   0.22249   0.85892   0.00000  Uiso   1.00
H5966  H     1.14043   0.44281   0.90110   0.00000  Uiso   1.00
C5967  C     1.19695   0.39866   0.83324   0.00000  Uiso   1.00
C5968  C     0.91884   0.28200   0.93285   0.00000  Uiso   1.00
C5969  C     0.93216   0.45975   0.79335   0.00000  Uiso   1.00
H5970  H     1.08538   0.37722   0.81112   0.00000  Uiso   1.00
C5971  C     1.11461   0.45074   0.78569   0.00000  Uiso   1.00
C5972  C     1.03325   0.35223   0.77039   0.00000  Uiso   1.00
C5973  C     0.96225   0.36274   0.79652   0.00000  Uiso   1.00
C5974  C     0.93449   0.38331   0.96794   0.00000  Uiso   1.00
H5975  H     0.99857   0.41569   0.77844   0.00000  Uiso   1.00
C5976  C     1.00548   0.35919   0.77487   0.00000  Uiso   1.00
C5977  C     1.10551   0.34140   0.82710   0.00000  Uiso   1.00
C5978  C     1.04186   0.33545   0.74828   0.00000  Uiso   1.00
C5979  C     0.92622   0.34877   0.87941   0.00000  Uiso   1.00
C5980  C     0.92326   0.45038   0.76553   0.00000  Uiso   1.00
H5981  H     1.04814   0.41419   0.92125   0.00000  Uiso   1.00
C5982  C     0.92327   0.32671   0.89722   0.00000  Uiso   1.00
C5983  C     0.93157   0.27859   0.90700   0.00000  Uiso   1.00
C5984  C     0.94876   0.26796   0.82346   0.00000  Uiso   1.00
C5985  C     1.11788   0.42355   0.78063   0.00000  Uiso   1.00
C5986  C     1.21250   0.26467   0.87537   0.00000  Uiso   1.00
C5987  C     0.99446   0.33206   0.73488   0.00000  Uiso   1.00
C5988  C     0.94623   0.27174   0.85191   0.00000  Uiso   1.00
C5989  C     1.06273   0.28243   0.82859   0.00000  Uiso   1.00
H5990  H     0.95211   0.28537   0.81083   0.00000  Uiso   1.00
C5991  C     1.13118   0.32948   0.83604   0.00000  Uiso   1.00
H5992  H     1.04820   0.36017   0.78495   0.00000  Uiso   1.00
C5993  C     1.19997   0.32538   0.73015   0.00000  Uiso   1.00
H5994  H     1.08561   0.43608   0.90830   0.00000  Uiso   1.00
C5995  C     0.92285   0.24082   0.77146   0.00000  Uiso   1.00
C5996  C     0.95594   0.39464   0.95132   0.00000  Uiso   1.00
H5997  H     0.94779   0.37208   0.72537   0.00000  Uiso   1.00
C5998  C     0.95788   0.35636   0.76658   0.00000  Uiso   1.00
C5999  C     1.12949   0.45908   0.81185   0.00000  Uiso   1.00
O6000  O     1.08164   0.32669   0.82431   0.00000  Uiso   1.00
C6001  C     1.00740   0.36693   0.82527   0.00000  Uiso   1.00
H6002  H     1.18388   0.31114   0.73540   0.00000  Uiso   1.00
C6003  C     1.10993   0.28767   0.84320   0.00000  Uiso   1.00
C6004  C     1.15576   0.34203   0.83002   0.00000  Uiso   1.00
C6005  C     0.94903   0.37923   0.74749   0.00000  Uiso   1.00
H6006  H     0.99352   0.22606   0.77119   0.00000  Uiso   1.00
C6007  C     0.95014   0.24036   0.81318   0.00000  Uiso   1.00
C6008  C     1.01701   0.41629   0.81960   0.00000  Uiso   1.00
H6009  H     1.20218   0.28959   0.77547   0.00000  Uiso   1.00
C6010  C     0.90345   0.30618   0.93768   0.00000  Uiso   1.00
C6011  C     1.09771   0.24299   0.94589   0.00000  Uiso   1.00
H6012  H     0.96005   0.34421   0.80926   0.00000  Uiso   1.00
H6013  H     1.16162   0.39381   0.77022   0.00000  Uiso   1.00
C6014  C     1.04557   0.30898   0.89332   0.00000  Uiso   1.00
C6015  C     0.91698   0.26028   0.95162   0.00000  Uiso   1.00
N6016  N     1.10424   0.22265   0.79261   0.00000  Uiso   1.00
C6017  C     1.10624   0.36842   0.81591   0.00000  Uiso   1.00
O6018  O     0.92211   0.44852   0.81651   0.00000  Uiso   1.00
H6019  H     1.21872   0.36345   0.81273   0.00000  Uiso   1.00
C6020  C     0.93731   0.33185   0.76801   0.00000  Uiso   1.00
C6021  C     1.13815   0.41128   0.80144   0.00000  Uiso   1.00
C6022  C     1.09953   0.46620   0.76725   0.00000  Uiso   1.00
C6023  C     1.00342   0.33453   0.95472   0.00000  Uiso   1.00
C6024  C     1.10252   0.34350   0.92890   0.00000  Uiso   1.00
C6025  C     1.13108   0.38258   0.81287   0.00000  Uiso   1.00
C6026  C     1.10222   0.40962   0.76210   0.00000  Uiso   1.00
F6027  F     1.03618   0.23933   0.83769   0.00000  Uiso   1.00
N6028  N     1.00920   0.24642   0.89499   0.00000  Uiso   1.00
H6029  H     1.17881   0.42475   0.78437   0.00000  Uiso   1.00
H6030  H     1.19021   0.26645   0.88212   0.00000  Uiso   1.00
C6031  C     0.94953   0.23079   0.78342   0.00000  Uiso   1.00
C6032  C     1.11545   0.26402   0.95476   0.00000  Uiso   1.00
O6033  O     1.07026   0.40931   0.72426   0.00000  Uiso   1.00
H6034  H     0.94347   0.31233   0.77604   0.00000  Uiso   1.00
C6035  C     1.12932   0.24883   0.87012   0.00000  Uiso   1.00
H6036  H     0.91835   0.33922   0.77819   0.00000  Uiso   1.00
C6037  C     1.08650   0.45230   0.74519   0.00000  Uiso   1.00
H6038  H     0.96535   0.39568   0.74875   0.00000  Uiso   1.00
C6039  C     1.06856   0.27532   0.92349   0.00000  Uiso   1.00
O6040  O     1.07297   0.24805   0.93052   0.00000  Uiso   1.00
C6041  C     1.04480   0.42322   0.80589   0.00000  Uiso   1.00
C6042  C     0.98073   0.35160   0.95946   0.00000  Uiso   1.00
H6043  H     1.10641   0.38727   0.75802   0.00000  Uiso   1.00
C6044  C     0.90690   0.32835   0.91974   0.00000  Uiso   1.00
H6045  H     0.98125   0.26197   0.77265   0.00000  Uiso   1.00
C6046  C     1.08823   0.29566   0.93048   0.00000  Uiso   1.00
H6047  H     1.06035   0.43346   0.81982   0.00000  Uiso   1.00
C6048  C     1.18101   0.38573   0.81026   0.00000  Uiso   1.00
C6049  C     0.90315   0.41783   0.86134   0.00000  Uiso   1.00
O6050  O     1.10921   0.29102   0.94993   0.00000  Uiso   1.00
H6051  H     0.92226   0.23566   0.74848   0.00000  Uiso   1.00
C6052  C     1.00774   0.46948   0.91377   0.00000  Uiso   1.00
H6053  H     1.19217   0.31878   0.95126   0.00000  Uiso   1.00
H6054  H     1.17957   0.37811   0.95766   0.00000  Uiso   1.00
C6055  C     0.93695   0.46036   0.74311   0.00000  Uiso   1.00
C6056  C     1.13207   0.44935   0.92273   0.00000  Uiso   1.00
O6057  O     1.07109   0.46836   0.72756   0.00000  Uiso   1.00
H6058  H     1.20242   0.26867   0.72775   0.00000  Uiso   1.00
N6059  N     1.14698   0.23727   0.88190   0.00000  Uiso   1.00
C6060  C     1.20366   0.36826   0.79648   0.00000  Uiso   1.00
H6061  H     1.20864   0.38352   0.84683   0.00000  Uiso   1.00
C6062  C     1.08378   0.45894   0.90518   0.00000  Uiso   1.00
H6063  H     1.07833   0.33025   0.72863   0.00000  Uiso   1.00
H6064  H     1.19985   0.40614   0.96230   0.00000  Uiso   1.00
C6065  C     1.10825   0.47101   0.92163   0.00000  Uiso   1.00
H6066  H     1.18174   0.22233   0.84321   0.00000  Uiso   1.00
H6067  H     1.21496   0.37963   0.78105   0.00000  Uiso   1.00
C6068  C     0.90568   0.42500   0.81249   0.00000  Uiso   1.00
C6069  C     0.89769   0.40882   0.83509   0.00000  Uiso   1.00
H6070  H     1.08746   0.46181   0.88234   0.00000  Uiso   1.00
C6071  C     1.20263   0.23007   0.83732   0.00000  Uiso   1.00
H6072  H     1.05920   0.39544   0.96674   0.00000  Uiso   1.00
C6073  C     1.05791   0.47129   0.91637   0.00000  Uiso   1.00
H6074  H     1.09216   0.46133   0.83208   0.00000  Uiso   1.00
H6075  H     1.16197   0.43430   0.96774   0.00000  Uiso   1.00
H6076  H     1.13241   0.41121   0.97163   0.00000  Uiso   1.00
H6077  H     1.00424   0.45984   0.72439   0.00000  Uiso   1.00
C6078  C     1.13751   0.25629   0.97187   0.00000  Uiso   1.00
H6079  H     1.06232   0.35884   0.97153   0.00000  Uiso   1.00
H6080  H     1.16772   0.35754   1.00611   0.00000  Uiso   1.00
H6081  H     1.14360   0.41778   1.05609   0.00000  Uiso   1.00
C6082  C     0.95920   0.34056   0.97647   0.00000  Uiso   1.00
O6083  O     0.95205   0.38341   1.03303   0.00000  Uiso   1.00
C6084  C     1.03825   0.31437   1.01641   0.00000  Uiso   1.00
C6085  C     1.03645   0.33894   1.18481   0.00000  Uiso   1.00
H6086  H     1.15767   0.39305   1.12905   0.00000  Uiso   1.00
C6087  C     1.15957   0.37834   1.01400   0.00000  Uiso   1.00
C6088  C     1.18794   0.33545   1.05008   0.00000  Uiso   1.00
C6089  C     1.03856   0.36692   1.18600   0.00000  Uiso   1.00
H6090  H     1.06218   0.22715   1.10785   0.00000  Uiso   1.00
C6091  C     0.92832   0.45156   1.04347   0.00000  Uiso   1.00
C6092  C     0.91039   0.29317   1.05180   0.00000  Uiso   1.00
C6093  C     1.02187   0.40923   1.01142   0.00000  Uiso   1.00
C6094  C     1.04982   0.28935   1.03218   0.00000  Uiso   1.00
H6095  H     1.03619   0.26291   1.08347   0.00000  Uiso   1.00
H6096  H     1.01672   0.31125   1.01463   0.00000  Uiso   1.00
O6097  O     1.12051   0.36067   1.18479   0.00000  Uiso   1.00
H6098  H     0.95410   0.30639   1.17047   0.00000  Uiso   1.00
H6099  H     1.17172   0.41462   1.10235   0.00000  Uiso   1.00
C6100  C     1.20574   0.26751   1.07778   0.00000  Uiso   1.00
C6101  C     1.14401   0.22897   0.97487   0.00000  Uiso   1.00
C6102  C     1.16390   0.22349   1.02254   0.00000  Uiso   1.00
O6103  O     1.03254   0.34194   1.13548   0.00000  Uiso   1.00
C6104  C     1.08358   0.45036   1.22043   0.00000  Uiso   1.00
C6105  C     1.18931   0.40510   1.04132   0.00000  Uiso   1.00
C6106  C     1.04516   0.30033   1.06184   0.00000  Uiso   1.00
C6107  C     1.07078   0.37845   0.97959   0.00000  Uiso   1.00
C6108  C     1.20829   0.43705   1.00793   0.00000  Uiso   1.00
H6109  H     0.92771   0.28898   1.11007   0.00000  Uiso   1.00
H6110  H     1.20624   0.40739   1.08066   0.00000  Uiso   1.00
C6111  C     1.08197   0.28329   1.03047   0.00000  Uiso   1.00
C6112  C     0.95085   0.31632   1.21329   0.00000  Uiso   1.00
C6113  C     1.03378   0.30014   1.10900   0.00000  Uiso   1.00
C6114  C     1.15989   0.35782   1.08493   0.00000  Uiso   1.00
H6115  H     1.13392   0.23273   1.07820   0.00000  Uiso   1.00
C6116  C     1.03751   0.34274   1.08669   0.00000  Uiso   1.00
C6117  C     1.07531   0.46038   1.19088   0.00000  Uiso   1.00
N6118  N     0.95495   0.35472   1.07878   0.00000  Uiso   1.00
H6119  H     0.94707   0.37540   1.05046   0.00000  Uiso   1.00
C6120  C     0.95756   0.38507   1.14212   0.00000  Uiso   1.00
C6121  C     1.14171   0.39485   1.05955   0.00000  Uiso   1.00
H6122  H     1.00747   0.42212   1.19790   0.00000  Uiso   1.00
C6123  C     1.03590   0.26219   1.02205   0.00000  Uiso   1.00
H6124  H     1.09346   0.37834   0.97235   0.00000  Uiso   1.00
H6125  H     1.19723   0.24618   0.98347   0.00000  Uiso   1.00
C6126  C     1.04688   0.46197   1.18877   0.00000  Uiso   1.00
H6127  H     1.08612   0.27747   1.00864   0.00000  Uiso   1.00
C6128  C     0.93637   0.27943   1.04925   0.00000  Uiso   1.00
C6129  C     1.17149   0.40034   0.99590   0.00000  Uiso   1.00
H6130  H     1.09466   0.30201   1.03580   0.00000  Uiso   1.00
C6131  C     1.22175   0.44095   1.22066   0.00000  Uiso   1.00
O6132  O     0.97909   0.43358   1.01410   0.00000  Uiso   1.00
C6133  C     1.02832   0.28228   1.18174   0.00000  Uiso   1.00
C6134  C     0.93619   0.35749   0.98183   0.00000  Uiso   1.00
C6135  C     1.02471   0.36369   1.02745   0.00000  Uiso   1.00
O6136  O     0.95856   0.35750   1.14927   0.00000  Uiso   1.00
O6137  O     0.95309   0.42519   1.07809   0.00000  Uiso   1.00
C6138  C     0.95190   0.45425   1.17363   0.00000  Uiso   1.00
H6139  H     1.03020   0.42897   1.00338   0.00000  Uiso   1.00
C6140  C     1.04261   0.32901   1.06180   0.00000  Uiso   1.00
O6141  O     0.95906   0.39888   1.19114   0.00000  Uiso   1.00
C6142  C     1.02092   0.25394   1.18028   0.00000  Uiso   1.00
C6143  C     1.17448   0.35820   1.06029   0.00000  Uiso   1.00
C6144  C     1.03894   0.28553   1.08485   0.00000  Uiso   1.00
H6145  H     0.97440   0.25756   1.10573   0.00000  Uiso   1.00
N6146  N     1.08606   0.31157   1.14417   0.00000  Uiso   1.00
H6147  H     1.11454   0.46166   1.16930   0.00000  Uiso   1.00
H6148  H     1.04260   0.24493   1.03520   0.00000  Uiso   1.00
O6149  O     0.91556   0.34743   1.00004   0.00000  Uiso   1.00
C6150  C     0.93763   0.44811   1.07064   0.00000  Uiso   1.00
H6151  H     1.13725   0.37392   1.01131   0.00000  Uiso   1.00
C6152  C     0.95551   0.37195   1.09450   0.00000  Uiso   1.00
C6153  C     1.10507   0.40559   1.19883   0.00000  Uiso   1.00
H6154  H     1.13773   0.41937   1.11660   0.00000  Uiso   1.00
H6155  H     1.12483   0.38526   1.05061   0.00000  Uiso   1.00
H6156  H     0.99330   0.45540   1.19930   0.00000  Uiso   1.00
C6157  C     0.95382   0.32257   1.18588   0.00000  Uiso   1.00
C6158  C     1.03430   0.32854   1.11121   0.00000  Uiso   1.00
H6159  H     0.97474   0.27877   1.02628   0.00000  Uiso   1.00
C6160  C     1.14968   0.42032   0.98102   0.00000  Uiso   1.00
C6161  C     0.95393   0.28687   1.02789   0.00000  Uiso   1.00
C6162  C     1.18824   0.31208   1.06773   0.00000  Uiso   1.00
C6163  C     1.02943   0.29784   1.15788   0.00000  Uiso   1.00
C6164  C     0.95777   0.39293   1.11437   0.00000  Uiso   1.00
H6165  H     1.08636   0.22934   1.14304   0.00000  Uiso   1.00
H6166  H     1.08130   0.36530   1.04766   0.00000  Uiso   1.00
H6167  H     0.97193   0.29203   1.09176   0.00000  Uiso   1.00
H6168  H     1.09613   0.38696   1.09329   0.00000  Uiso   1.00
C6169  C     0.97039   0.27048   1.08687   0.00000  Uiso   1.00
C6170  C     1.10085   0.31219   1.16347   0.00000  Uiso   1.00
O6171  O     1.02861   0.28407   1.13240   0.00000  Uiso   1.00
O6172  O     0.96414   0.31466   0.98776   0.00000  Uiso   1.00
C6173  C     1.08374   0.40863   1.01797   0.00000  Uiso   1.00
C6174  C     0.92234   0.32328   1.01515   0.00000  Uiso   1.00
C6175  C     0.97984   0.38481   1.02784   0.00000  Uiso   1.00
C6176  C     1.15393   0.40330   1.11057   0.00000  Uiso   1.00
C6177  C     0.90504   0.31692   1.03689   0.00000  Uiso   1.00
N6178  N     1.16505   0.25120   1.16618   0.00000  Uiso   1.00
H6179  H     1.08708   0.26476   1.04362   0.00000  Uiso   1.00
C6180  C     0.95457   0.42021   1.10552   0.00000  Uiso   1.00
H6181  H     1.01278   0.26092   1.02494   0.00000  Uiso   1.00
H6182  H     1.11368   0.37076   1.12089   0.00000  Uiso   1.00
H6183  H     1.17040   0.24472   1.02485   0.00000  Uiso   1.00
H6184  H     0.98778   0.34212   1.04111   0.00000  Uiso   1.00
C6185  C     1.13102   0.33665   1.19536   0.00000  Uiso   1.00
C6186  C     1.20569   0.41783   1.06113   0.00000  Uiso   1.00
H6187  H     1.04791   0.31525   0.99416   0.00000  Uiso   1.00
H6188  H     1.04018   0.25771   1.00056   0.00000  Uiso   1.00
H6189  H     1.15187   0.27083   0.98231   0.00000  Uiso   1.00
H6190  H     1.07840   0.42761   1.00525   0.00000  Uiso   1.00
H6191  H     1.09155   0.34507   1.01857   0.00000  Uiso   1.00
C6192  C     1.03661   0.38621   1.01581   0.00000  Uiso   1.00
C6193  C     0.95305   0.44052   1.12564   0.00000  Uiso   1.00
H6194  H     0.98499   0.26562   1.07099   0.00000  Uiso   1.00
C6195  C     1.07368   0.35717   1.02837   0.00000  Uiso   1.00
C6196  C     1.04598   0.34054   1.03284   0.00000  Uiso   1.00
H6197  H     1.11638   0.25611   1.10275   0.00000  Uiso   1.00
C6198  C     1.14161   0.38335   1.08844   0.00000  Uiso   1.00
C6199  C     0.89483   0.28348   1.07775   0.00000  Uiso   1.00
C6200  C     1.12524   0.28766   1.19988   0.00000  Uiso   1.00
C6201  C     0.89531   0.26816   1.21122   0.00000  Uiso   1.00
O6202  O     1.17343   0.28989   1.10933   0.00000  Uiso   1.00
H6203  H     1.03447   0.36475   1.08776   0.00000  Uiso   1.00
O6204  O     1.20409   0.28864   1.05853   0.00000  Uiso   1.00
C6205  C     0.99697   0.36071   1.03213   0.00000  Uiso   1.00
N6206  N     0.89178   0.41176   0.97895   0.00000  Uiso   1.00
H6207  H     0.89518   0.22478   1.17566   0.00000  Uiso   1.00
C6208  C     1.17471   0.31184   1.09391   0.00000  Uiso   1.00
H6209  H     1.14927   0.33592   1.11969   0.00000  Uiso   1.00
C6210  C     1.10284   0.42549   1.21932   0.00000  Uiso   1.00
C6211  C     1.18979   0.41553   1.01542   0.00000  Uiso   1.00
C6212  C     1.16119   0.33509   1.10144   0.00000  Uiso   1.00
C6213  C     1.06776   0.38220   1.00965   0.00000  Uiso   1.00
C6214  C     1.00613   0.44020   1.21149   0.00000  Uiso   1.00
N6215  N     1.01571   0.23025   1.18018   0.00000  Uiso   1.00
H6216  H     0.92978   0.43409   1.02842   0.00000  Uiso   1.00
C6217  C     0.94664   0.30852   1.00926   0.00000  Uiso   1.00
C6218  C     1.17642   0.24865   1.14588   0.00000  Uiso   1.00
H6219  H     1.14309   0.23288   1.11250   0.00000  Uiso   1.00
N6220  N     1.03993   0.39122   1.18614   0.00000  Uiso   1.00
C6221  C     1.19245   0.24600   1.12059   0.00000  Uiso   1.00
C6222  C     1.12564   0.23562   1.09875   0.00000  Uiso   1.00
H6223  H     1.14038   0.43466   0.99589   0.00000  Uiso   1.00
C6224  C     1.11380   0.37311   1.09784   0.00000  Uiso   1.00
H6225  H     0.92041   0.24982   1.16304   0.00000  Uiso   1.00
C6226  C     1.19067   0.26771   1.10184   0.00000  Uiso   1.00
H6227  H     1.08035   0.41642   1.03922   0.00000  Uiso   1.00
H6228  H     0.95554   0.26868   1.19374   0.00000  Uiso   1.00
H6229  H     0.90204   0.34020   1.09558   0.00000  Uiso   1.00
H6230  H     1.10717   0.35289   1.09047   0.00000  Uiso   1.00
C6231  C     1.03178   0.32668   1.15979   0.00000  Uiso   1.00
C6232  C     0.94458   0.26466   1.21349   0.00000  Uiso   1.00
C6233  C     0.95554   0.35077   1.17707   0.00000  Uiso   1.00
C6234  C     1.16704   0.38394   1.04468   0.00000  Uiso   1.00
H6235  H     1.10554   0.40707   1.01706   0.00000  Uiso   1.00
C6236  C     0.96031   0.37046   1.19744   0.00000  Uiso   1.00
C6237  C     0.91987   0.27338   1.09520   0.00000  Uiso   1.00
C6238  C     1.21037   0.22396   1.11774   0.00000  Uiso   1.00
C6239  C     0.99241   0.40804   1.01781   0.00000  Uiso   1.00
C6240  C     0.95655   0.43294   1.15335   0.00000  Uiso   1.00
H6241  H     1.19473   0.33315   1.02869   0.00000  Uiso   1.00
C6242  C     0.90700   0.29371   1.21817   0.00000  Uiso   1.00
C6243  C     0.91097   0.39873   0.97378   0.00000  Uiso   1.00
C6244  C     1.11991   0.31208   1.18589   0.00000  Uiso   1.00
H6245  H     1.09017   0.40277   1.18158   0.00000  Uiso   1.00
H6246  H     1.20632   0.44649   0.98790   0.00000  Uiso   1.00
H6247  H     0.97760   0.44368   1.03076   0.00000  Uiso   1.00
O6248  O     1.10611   0.26560   1.19616   0.00000  Uiso   1.00
C6249  C     1.03949   0.32250   1.20877   0.00000  Uiso   1.00
C6250  C     0.94121   0.26283   1.07603   0.00000  Uiso   1.00
C6251  C     0.95870   0.40618   1.16288   0.00000  Uiso   1.00
C6252  C     0.91889   0.24718   1.20669   0.00000  Uiso   1.00
H6253  H     0.91106   0.25691   1.10848   0.00000  Uiso   1.00
C6254  C     1.12203   0.38254   1.20352   0.00000  Uiso   1.00
N6255  N     0.99457   0.46251   1.05934   0.00000  Uiso   1.00
C6256  C     1.03525   0.29379   1.20731   0.00000  Uiso   1.00
C6257  C     0.91575   0.23396   1.17827   0.00000  Uiso   1.00
C6258  C     1.09215   0.46396   1.16828   0.00000  Uiso   1.00
C6259  C     1.11340   0.24094   1.20935   0.00000  Uiso   1.00
H6260  H     0.95205   0.22364   1.05488   0.00000  Uiso   1.00
H6261  H     0.91971   0.45946   0.97823   0.00000  Uiso   1.00
C6262  C     1.03315   0.45619   1.21549   0.00000  Uiso   1.00
H6263  H     1.20878   0.37679   0.98143   0.00000  Uiso   1.00
C6264  C     0.93368   0.46894   1.09120   0.00000  Uiso   1.00
C6265  C     1.19434   0.22288   0.98293   0.00000  Uiso   1.00
C6266  C     0.93917   0.23222   1.07178   0.00000  Uiso   1.00
H6267  H     1.14261   0.22368   1.03074   0.00000  Uiso   1.00
H6268  H     1.07658   0.22801   1.07559   0.00000  Uiso   1.00
H6269  H     0.91930   0.22677   1.06485   0.00000  Uiso   1.00
C6270  C     0.89009   0.31652   1.21931   0.00000  Uiso   1.00
C6271  C     1.15089   0.33658   1.21779   0.00000  Uiso   1.00
C6272  C     1.08200   0.47170   1.14237   0.00000  Uiso   1.00
C6273  C     1.14665   0.28698   1.21891   0.00000  Uiso   1.00
O6274  O     0.94339   0.46657   1.11786   0.00000  Uiso   1.00
H6275  H     1.21776   0.44548   1.19927   0.00000  Uiso   1.00
C6276  C     1.03587   0.46970   1.16320   0.00000  Uiso   1.00
C6277  C     1.01724   0.47067   1.06123   0.00000  Uiso   1.00
C6278  C     1.18960   0.38810   0.97410   0.00000  Uiso   1.00
H6279  H     1.19736   0.29193   0.97749   0.00000  Uiso   1.00
H6280  H     0.89806   0.33780   1.22069   0.00000  Uiso   1.00
C6281  C     1.20351   0.57322   0.35768   0.00000  Uiso   1.00
C6282  C     0.98590   0.69632   0.25769   0.00000  Uiso   1.00
H6283  H     1.19414   0.50652   0.23481   0.00000  Uiso   1.00
O6284  O     0.90917   0.68389   0.38371   0.00000  Uiso   1.00
O6285  O     1.07186   0.51393   0.45998   0.00000  Uiso   1.00
C6286  C     0.94663   0.65526   0.35028   0.00000  Uiso   1.00
H6287  H     0.96032   0.58903   0.24393   0.00000  Uiso   1.00
C6288  C     0.90502   0.53416   0.34854   0.00000  Uiso   1.00
C6289  C     0.96403   0.48224   0.35578   0.00000  Uiso   1.00
C6290  C     1.17865   0.47305   0.46294   0.00000  Uiso   1.00
C6291  C     0.89041   0.55424   0.24977   0.00000  Uiso   1.00
N6292  N     0.97267   0.56695   0.40941   0.00000  Uiso   1.00
H6293  H     1.17282   0.50491   0.36304   0.00000  Uiso   1.00
H6294  H     1.11060   0.57431   0.37881   0.00000  Uiso   1.00
C6295  C     0.90011   0.71353   0.42116   0.00000  Uiso   1.00
H6296  H     1.14196   0.54519   0.45842   0.00000  Uiso   1.00
C6297  C     1.06391   0.49295   0.44138   0.00000  Uiso   1.00
H6298  H     1.13266   0.71888   0.42885   0.00000  Uiso   1.00
C6299  C     0.90920   0.59811   0.25906   0.00000  Uiso   1.00
C6300  C     1.20516   0.55113   0.34026   0.00000  Uiso   1.00
H6301  H     1.00093   0.52786   0.37026   0.00000  Uiso   1.00
C6302  C     1.03313   0.53988   0.43985   0.00000  Uiso   1.00
C6303  C     1.21543   0.71051   0.36105   0.00000  Uiso   1.00
C6304  C     1.19346   0.51237   0.42418   0.00000  Uiso   1.00
C6305  C     1.14349   0.60453   0.43450   0.00000  Uiso   1.00
H6306  H     1.15227   0.53065   0.29453   0.00000  Uiso   1.00
N6307  N     1.02878   0.64227   0.27458   0.00000  Uiso   1.00
C6308  C     0.92991   0.49679   0.40894   0.00000  Uiso   1.00
C6309  C     1.07069   0.69718   0.23647   0.00000  Uiso   1.00
C6310  C     1.06739   0.56145   0.46866   0.00000  Uiso   1.00
H6311  H     1.04230   0.49870   0.22834   0.00000  Uiso   1.00
C6312  C     0.95353   0.55618   0.33026   0.00000  Uiso   1.00
C6313  C     0.95284   0.52851   0.33762   0.00000  Uiso   1.00
H6314  H     1.04884   0.68761   0.36968   0.00000  Uiso   1.00
C6315  C     1.10210   0.66874   0.26284   0.00000  Uiso   1.00
H6316  H     1.08887   0.48769   0.24617   0.00000  Uiso   1.00
H6317  H     1.18627   0.53240   0.28664   0.00000  Uiso   1.00
O6318  O     1.21148   0.49106   0.42937   0.00000  Uiso   1.00
C6319  C     1.03988   0.49423   0.42505   0.00000  Uiso   1.00
C6320  C     1.15618   0.54088   0.44167   0.00000  Uiso   1.00
C6321  C     1.00259   0.68823   0.27915   0.00000  Uiso   1.00
C6322  C     1.03637   0.63686   0.44305   0.00000  Uiso   1.00
H6323  H     1.13091   0.59515   0.45159   0.00000  Uiso   1.00
H6324  H     1.21710   0.65777   0.38056   0.00000  Uiso   1.00
C6325  C     1.16405   0.59648   0.38653   0.00000  Uiso   1.00
O6326  O     1.06103   0.71203   0.26008   0.00000  Uiso   1.00
H6327  H     1.18564   0.71716   0.41604   0.00000  Uiso   1.00
C6328  C     1.01960   0.56451   0.43598   0.00000  Uiso   1.00
H6329  H     0.92667   0.61417   0.25543   0.00000  Uiso   1.00
O6330  O     1.01931   0.61389   0.43823   0.00000  Uiso   1.00
H6331  H     1.17645   0.65759   0.26451   0.00000  Uiso   1.00
C6332  C     1.02401   0.48543   0.22797   0.00000  Uiso   1.00
C6333  C     1.17050   0.54193   0.30099   0.00000  Uiso   1.00
O6334  O     0.92048   0.50984   0.45508   0.00000  Uiso   1.00
C6335  C     1.15831   0.55505   0.35060   0.00000  Uiso   1.00
H6336  H     1.01492   0.48085   0.24802   0.00000  Uiso   1.00
N6337  N     0.96691   0.66484   0.45053   0.00000  Uiso   1.00
H6338  H     0.97483   0.48430   0.37593   0.00000  Uiso   1.00
H6339  H     1.11070   0.55908   0.41231   0.00000  Uiso   1.00
C6340  C     0.92902   0.51744   0.34849   0.00000  Uiso   1.00
C6341  C     1.19228   0.69488   0.37664   0.00000  Uiso   1.00
O6342  O     0.99124   0.68543   0.23072   0.00000  Uiso   1.00
H6343  H     0.97364   0.56555   0.32542   0.00000  Uiso   1.00
H6344  H     1.18311   0.60404   0.39643   0.00000  Uiso   1.00
C6345  C     1.07181   0.68251   0.44604   0.00000  Uiso   1.00
C6346  C     0.97895   0.71998   0.30870   0.00000  Uiso   1.00
C6347  C     1.19538   0.65746   0.25168   0.00000  Uiso   1.00
C6348  C     1.02860   0.71700   0.39551   0.00000  Uiso   1.00
C6349  C     0.97893   0.49774   0.30571   0.00000  Uiso   1.00
H6350  H     0.91267   0.51250   0.27602   0.00000  Uiso   1.00
C6351  C     1.11525   0.57911   0.40077   0.00000  Uiso   1.00
C6352  C     1.06116   0.63528   0.45918   0.00000  Uiso   1.00
C6353  C     1.05782   0.53811   0.45608   0.00000  Uiso   1.00
C6354  C     0.89158   0.69220   0.40323   0.00000  Uiso   1.00
H6355  H     1.14175   0.54152   0.35950   0.00000  Uiso   1.00
C6356  C     0.97586   0.50578   0.33678   0.00000  Uiso   1.00
C6357  C     1.04715   0.68476   0.43291   0.00000  Uiso   1.00
H6358  H     1.16271   0.61028   0.44372   0.00000  Uiso   1.00
C6359  C     1.18408   0.71895   0.25569   0.00000  Uiso   1.00
C6360  C     0.99376   0.56599   0.42068   0.00000  Uiso   1.00
C6361  C     0.92184   0.64262   0.35632   0.00000  Uiso   1.00
C6362  C     1.03053   0.66182   0.43148   0.00000  Uiso   1.00
C6363  C     1.17803   0.53817   0.33235   0.00000  Uiso   1.00
C6364  C     1.00282   0.51675   0.34963   0.00000  Uiso   1.00
C6365  C     1.03104   0.58817   0.44619   0.00000  Uiso   1.00
C6366  C     1.17511   0.50839   0.34056   0.00000  Uiso   1.00
H6367  H     1.01302   0.47658   0.39640   0.00000  Uiso   1.00
H6368  H     1.13322   0.48657   0.28300   0.00000  Uiso   1.00
C6369  C     1.09049   0.70802   0.44334   0.00000  Uiso   1.00
H6370  H     1.01085   0.59128   0.22515   0.00000  Uiso   1.00
C6371  C     0.99985   0.70054   0.30457   0.00000  Uiso   1.00
C6372  C     0.96119   0.57111   0.22955   0.00000  Uiso   1.00
C6373  C     1.17624   0.57108   0.37217   0.00000  Uiso   1.00
H6374  H     1.01270   0.53109   0.33580   0.00000  Uiso   1.00
C6375  C     1.19436   0.69838   0.40786   0.00000  Uiso   1.00
H6376  H     1.10024   0.59368   0.40968   0.00000  Uiso   1.00
C6377  C     0.90056   0.50621   0.25689   0.00000  Uiso   1.00
C6378  C     1.14506   0.58493   0.40917   0.00000  Uiso   1.00
N6379  N     0.89909   0.69716   0.30812   0.00000  Uiso   1.00
C6380  C     0.96247   0.65426   0.47092   0.00000  Uiso   1.00
H6381  H     1.15354   0.47453   0.25298   0.00000  Uiso   1.00
C6382  C     1.19614   0.66312   0.37151   0.00000  Uiso   1.00
O6383  O     0.93368   0.60121   0.33222   0.00000  Uiso   1.00
H6384  H     1.01715   0.49731   0.35117   0.00000  Uiso   1.00
H6385  H     1.13573   0.62496   0.42666   0.00000  Uiso   1.00
H6386  H     1.14933   0.70869   0.37947   0.00000  Uiso   1.00
C6387  C     1.17791   0.55010   0.39652   0.00000  Uiso   1.00
C6388  C     0.93185   0.48758   0.35742   0.00000  Uiso   1.00
H6389  H     1.01310   0.66479   0.41918   0.00000  Uiso   1.00
H6390  H     1.14427   0.56891   0.33690   0.00000  Uiso   1.00
H6391  H     1.00926   0.71504   0.45435   0.00000  Uiso   1.00
C6392  C     1.19649   0.52870   0.40142   0.00000  Uiso   1.00
C6393  C     1.01720   0.66317   0.27719   0.00000  Uiso   1.00
C6394  C     1.11939   0.70096   0.43010   0.00000  Uiso   1.00
C6395  C     1.15898   0.55739   0.41682   0.00000  Uiso   1.00
C6396  C     1.08888   0.67603   0.23858   0.00000  Uiso   1.00
H6397  H     0.90977   0.48639   0.25060   0.00000  Uiso   1.00
H6398  H     1.16843   0.56311   0.29569   0.00000  Uiso   1.00
C6399  C     0.93182   0.57345   0.33321   0.00000  Uiso   1.00
N6400  N     1.11459   0.66344   0.28286   0.00000  Uiso   1.00
N6401  N     0.96789   0.66611   0.34543   0.00000  Uiso   1.00
H6402  H     1.19396   0.49613   0.33447   0.00000  Uiso   1.00
C6403  C     0.93173   0.56389   0.22354   0.00000  Uiso   1.00
C6404  C     0.90610   0.56221   0.34304   0.00000  Uiso   1.00
C6405  C     1.21896   0.67654   0.25925   0.00000  Uiso   1.00
C6406  C     1.17210   0.51749   0.44415   0.00000  Uiso   1.00
H6407  H     1.18336   0.68169   0.41829   0.00000  Uiso   1.00
H6408  H     1.18217   0.65125   0.38368   0.00000  Uiso   1.00
H6409  H     1.15653   0.61361   0.37290   0.00000  Uiso   1.00
O6410  O     1.01675   0.69255   0.32655   0.00000  Uiso   1.00
H6411  H     1.20067   0.63560   0.25014   0.00000  Uiso   1.00
C6412  C     1.03395   0.47410   0.40550   0.00000  Uiso   1.00
H6413  H     1.13136   0.68531   0.44331   0.00000  Uiso   1.00
O6414  O     1.02351   0.51627   0.42592   0.00000  Uiso   1.00
C6415  C     1.05560   0.58692   0.46274   0.00000  Uiso   1.00
C6416  C     0.91757   0.49086   0.43438   0.00000  Uiso   1.00
H6417  H     1.21265   0.52403   0.38541   0.00000  Uiso   1.00
O6418  O     1.16478   0.49773   0.46387   0.00000  Uiso   1.00
H6419  H     1.15870   0.49882   0.33035   0.00000  Uiso   1.00
C6420  C     0.90192   0.65757   0.37153   0.00000  Uiso   1.00
H6421  H     1.15679   0.69087   0.34963   0.00000  Uiso   1.00
H6422  H     0.97155   0.55376   0.24139   0.00000  Uiso   1.00
H6423  H     1.09835   0.65538   0.47140   0.00000  Uiso   1.00
C6424  C     0.91503   0.61767   0.34678   0.00000  Uiso   1.00
C6425  C     0.91036   0.57404   0.24425   0.00000  Uiso   1.00
H6426  H     0.94236   0.51547   0.40590   0.00000  Uiso   1.00
C6427  C     1.21019   0.70589   0.25491   0.00000  Uiso   1.00
C6428  C     1.07936   0.65752   0.45858   0.00000  Uiso   1.00
H6429  H     1.16792   0.70420   0.26201   0.00000  Uiso   1.00
C6430  C     1.16563   0.70579   0.36437   0.00000  Uiso   1.00
H6431  H     0.98001   0.51521   0.29065   0.00000  Uiso   1.00
C6432  C     1.03199   0.70305   0.37271   0.00000  Uiso   1.00
H6433  H     0.89162   0.47803   0.33467   0.00000  Uiso   1.00
H6434  H     1.11725   0.69499   0.40898   0.00000  Uiso   1.00
C6435  C     0.92392   0.48095   0.38624   0.00000  Uiso   1.00
H6436  H     1.18794   0.66042   0.23121   0.00000  Uiso   1.00
C6437  C     1.04422   0.71419   0.42369   0.00000  Uiso   1.00
H6438  H     0.96278   0.48325   0.29971   0.00000  Uiso   1.00
C6439  C     1.01369   0.70719   0.35057   0.00000  Uiso   1.00
H6440  H     1.08182   0.72088   0.40423   0.00000  Uiso   1.00
C6441  C     0.89877   0.52821   0.23459   0.00000  Uiso   1.00
H6442  H     0.94263   0.52266   0.23015   0.00000  Uiso   1.00
H6443  H     1.19693   0.65349   0.35081   0.00000  Uiso   1.00
H6444  H     1.21163   0.67073   0.30426   0.00000  Uiso   1.00
H6445  H     1.21579   0.69419   0.41661   0.00000  Uiso   1.00
H6446  H     0.99948   0.48787   0.30300   0.00000  Uiso   1.00
H6447  H     1.21041   0.48162   0.27684   0.00000  Uiso   1.00
C6448  C     0.96552   0.71692   0.26143   0.00000  Uiso   1.00
H6449  H     1.14096   0.71768   0.31612   0.00000  Uiso   1.00
H6450  H     1.10579   0.72088   0.35219   0.00000  Uiso   1.00
C6451  C     1.19591   0.48893   0.22231   0.00000  Uiso   1.00
C6452  C     1.03171   0.67366   0.66040   0.00000  Uiso   1.00
C6453  C     0.95702   0.64218   0.49665   0.00000  Uiso   1.00
H6454  H     0.94195   0.49527   0.69626   0.00000  Uiso   1.00
C6455  C     0.93803   0.61228   0.57540   0.00000  Uiso   1.00
O6456  O     0.91739   0.65209   0.66207   0.00000  Uiso   1.00
H6457  H     1.08044   0.71549   0.59598   0.00000  Uiso   1.00
H6458  H     0.94813   0.52820   0.71162   0.00000  Uiso   1.00
H6459  H     1.12215   0.49440   0.63039   0.00000  Uiso   1.00
H6460  H     0.91057   0.71535   0.50017   0.00000  Uiso   1.00
C6461  C     0.92744   0.54589   0.49873   0.00000  Uiso   1.00
C6462  C     0.93219   0.62929   0.50022   0.00000  Uiso   1.00
H6463  H     1.13078   0.63442   0.64556   0.00000  Uiso   1.00
C6464  C     1.06070   0.67955   0.55330   0.00000  Uiso   1.00
H6465  H     0.98653   0.49530   0.51765   0.00000  Uiso   1.00
N6466  N     1.11103   0.55684   0.49927   0.00000  Uiso   1.00
O6467  O     0.89831   0.61050   0.53202   0.00000  Uiso   1.00
C6468  C     1.01327   0.64538   0.55863   0.00000  Uiso   1.00
H6469  H     1.05889   0.60352   0.60249   0.00000  Uiso   1.00
C6470  C     0.89302   0.57999   0.65956   0.00000  Uiso   1.00
H6471  H     1.13659   0.60963   0.61792   0.00000  Uiso   1.00
C6472  C     1.08651   0.69711   0.55746   0.00000  Uiso   1.00
H6473  H     1.13751   0.49025   0.57517   0.00000  Uiso   1.00
C6474  C     0.95779   0.50902   0.70238   0.00000  Uiso   1.00
C6475  C     0.97992   0.62091   0.69104   0.00000  Uiso   1.00
H6476  H     1.13542   0.63631   0.70448   0.00000  Uiso   1.00
C6477  C     1.09379   0.62485   0.62140   0.00000  Uiso   1.00
C6478  C     1.09162   0.55931   0.48609   0.00000  Uiso   1.00
C6479  C     1.01935   0.65759   0.53247   0.00000  Uiso   1.00
C6480  C     0.90118   0.62816   0.65850   0.00000  Uiso   1.00
C6481  C     1.09764   0.64451   0.59805   0.00000  Uiso   1.00
O6482  O     1.02582   0.63703   0.69322   0.00000  Uiso   1.00
H6483  H     1.06569   0.61291   0.66948   0.00000  Uiso   1.00
C6484  C     1.17290   0.68060   0.57344   0.00000  Uiso   1.00
C6485  C     0.97696   0.64110   0.51691   0.00000  Uiso   1.00
N6486  N     1.05894   0.52094   0.67922   0.00000  Uiso   1.00
C6487  C     0.89332   0.51834   0.52524   0.00000  Uiso   1.00
H6488  H     1.07561   0.58455   0.62908   0.00000  Uiso   1.00
H6489  H     0.90028   0.55877   0.66575   0.00000  Uiso   1.00
H6490  H     1.12237   0.59901   0.64948   0.00000  Uiso   1.00
C6491  C     1.04124   0.64946   0.67346   0.00000  Uiso   1.00
H6492  H     0.89831   0.47905   0.69606   0.00000  Uiso   1.00
C6493  C     0.99874   0.64179   0.68820   0.00000  Uiso   1.00
H6494  H     1.00464   0.49205   0.59003   0.00000  Uiso   1.00
C6495  C     1.05549   0.49734   0.68002   0.00000  Uiso   1.00
C6496  C     1.07528   0.64319   0.63891   0.00000  Uiso   1.00
C6497  C     1.07738   0.66970   0.59895   0.00000  Uiso   1.00
C6498  C     0.89108   0.47932   0.48159   0.00000  Uiso   1.00
C6499  C     0.98873   0.66683   0.67730   0.00000  Uiso   1.00
C6500  C     1.12244   0.61652   0.63388   0.00000  Uiso   1.00
C6501  C     0.92490   0.61943   0.52645   0.00000  Uiso   1.00
O6502  O     1.20694   0.69707   0.53166   0.00000  Uiso   1.00
C6503  C     1.07908   0.59943   0.61073   0.00000  Uiso   1.00
H6504  H     1.03663   0.69979   0.62480   0.00000  Uiso   1.00
H6505  H     1.08549   0.52614   0.60361   0.00000  Uiso   1.00
C6506  C     1.04368   0.67566   0.53078   0.00000  Uiso   1.00
C6507  C     0.98605   0.59556   0.70113   0.00000  Uiso   1.00
H6508  H     1.04634   0.68636   0.51132   0.00000  Uiso   1.00
C6509  C     1.03251   0.64797   0.57931   0.00000  Uiso   1.00
C6510  C     0.94240   0.64839   0.67257   0.00000  Uiso   1.00
C6511  C     0.95275   0.62359   0.68167   0.00000  Uiso   1.00
H6512  H     1.02591   0.63931   0.59906   0.00000  Uiso   1.00
N6513  N     0.93166   0.60615   0.59779   0.00000  Uiso   1.00
C6514  C     0.91010   0.60167   0.66654   0.00000  Uiso   1.00
H6515  H     0.97010   0.51619   0.68392   0.00000  Uiso   1.00
C6516  C     0.91004   0.52203   0.50185   0.00000  Uiso   1.00
O6517  O     0.93536   0.59950   0.67957   0.00000  Uiso   1.00
H6518  H     1.00874   0.49698   0.54546   0.00000  Uiso   1.00
C6519  C     1.04709   0.68362   0.63795   0.00000  Uiso   1.00
H6520  H     1.12030   0.52108   0.58272   0.00000  Uiso   1.00
H6521  H     1.11415   0.69833   0.59123   0.00000  Uiso   1.00
H6522  H     1.10208   0.67611   0.52051   0.00000  Uiso   1.00
H6523  H     1.11775   0.65282   0.60019   0.00000  Uiso   1.00
H6524  H     1.14817   0.69806   0.66743   0.00000  Uiso   1.00
N6525  N     0.99100   0.57371   0.71030   0.00000  Uiso   1.00
O6526  O     1.00300   0.65228   0.50980   0.00000  Uiso   1.00
O6527  O     0.89561   0.53607   0.54846   0.00000  Uiso   1.00
C6528  C     1.05529   0.66390   0.57706   0.00000  Uiso   1.00
H6529  H     1.09149   0.58750   0.59509   0.00000  Uiso   1.00
H6530  H     1.06084   0.52342   0.57251   0.00000  Uiso   1.00
H6531  H     1.10861   0.70950   0.48466   0.00000  Uiso   1.00
H6532  H     1.12877   0.69833   0.53683   0.00000  Uiso   1.00
C6533  C     0.94414   0.61876   0.54800   0.00000  Uiso   1.00
C6534  C     1.07146   0.51299   0.59052   0.00000  Uiso   1.00
O6535  O     0.99029   0.63014   0.56482   0.00000  Uiso   1.00
C6536  C     1.06820   0.66825   0.62745   0.00000  Uiso   1.00
C6537  C     0.90729   0.50295   0.47924   0.00000  Uiso   1.00
C6538  C     1.09152   0.69688   0.58741   0.00000  Uiso   1.00
O6539  O     1.00690   0.68610   0.66816   0.00000  Uiso   1.00
C6540  C     1.06177   0.63279   0.66210   0.00000  Uiso   1.00
H6541  H     1.09962   0.63290   0.57826   0.00000  Uiso   1.00
C6542  C     0.95144   0.48197   0.55605   0.00000  Uiso   1.00
N6543  N     0.94132   0.56589   0.49653   0.00000  Uiso   1.00
C6544  C     0.95038   0.69696   0.66551   0.00000  Uiso   1.00
C6545  C     0.96094   0.67120   0.67238   0.00000  Uiso   1.00
H6546  H     0.94063   0.49221   0.53857   0.00000  Uiso   1.00
N6547  N     1.16174   0.65961   0.57222   0.00000  Uiso   1.00
C6548  C     0.97025   0.62973   0.54260   0.00000  Uiso   1.00
C6549  C     1.11963   0.65426   0.70375   0.00000  Uiso   1.00
H6550  H     1.11465   0.50975   0.54947   0.00000  Uiso   1.00
H6551  H     1.11960   0.66634   0.55087   0.00000  Uiso   1.00
H6552  H     1.12490   0.66208   0.68306   0.00000  Uiso   1.00
C6553  C     1.11729   0.50153   0.57075   0.00000  Uiso   1.00
C6554  C     1.11075   0.68360   0.54033   0.00000  Uiso   1.00
H6555  H     0.95365   0.50039   0.57368   0.00000  Uiso   1.00
H6556  H     1.05503   0.50448   0.60237   0.00000  Uiso   1.00
O6557  O     1.17172   0.71174   0.62302   0.00000  Uiso   1.00
N6558  N     0.94295   0.71803   0.66012   0.00000  Uiso   1.00
H6559  H     0.89703   0.48210   0.63660   0.00000  Uiso   1.00
C6560  C     1.18612   0.70722   0.57595   0.00000  Uiso   1.00
C6561  C     1.09080   0.48820   0.58206   0.00000  Uiso   1.00
C6562  C     1.11277   0.47443   0.63126   0.00000  Uiso   1.00
C6563  C     1.20282   0.71510   0.55367   0.00000  Uiso   1.00
H6564  H     1.09838   0.64537   0.70441   0.00000  Uiso   1.00
O6565  O     0.91366   0.62859   0.47723   0.00000  Uiso   1.00
C6566  C     0.88953   0.61256   0.48272   0.00000  Uiso   1.00
C6567  C     1.22092   0.47745   0.58831   0.00000  Uiso   1.00
H6568  H     1.17064   0.68016   0.71131   0.00000  Uiso   1.00
C6569  C     0.99707   0.48331   0.53331   0.00000  Uiso   1.00
H6570  H     0.89142   0.56588   0.59100   0.00000  Uiso   1.00
N6571  N     0.96280   0.71994   0.72124   0.00000  Uiso   1.00
O6572  O     1.06921   0.61103   0.47218   0.00000  Uiso   1.00
H6573  H     0.99998   0.47961   0.69144   0.00000  Uiso   1.00
C6574  C     1.16083   0.71627   0.66974   0.00000  Uiso   1.00
N6575  N     1.22095   0.50033   0.58045   0.00000  Uiso   1.00
C6576  C     1.15355   0.71929   0.72146   0.00000  Uiso   1.00
N6577  N     0.92647   0.53853   0.83212   0.00000  Uiso   1.00
H6578  H     1.18538   0.69842   0.95749   0.00000  Uiso   1.00
C6579  C     0.94670   0.58160   0.93858   0.00000  Uiso   1.00
H6580  H     1.09487   0.48747   0.77204   0.00000  Uiso   1.00
C6581  C     0.89529   0.64997   0.82229   0.00000  Uiso   1.00
C6582  C     1.09619   0.47750   0.94862   0.00000  Uiso   1.00
C6583  C     1.02890   0.55387   0.82628   0.00000  Uiso   1.00
C6584  C     1.16453   0.56928   0.93635   0.00000  Uiso   1.00
C6585  C     1.04109   0.55322   0.77524   0.00000  Uiso   1.00
C6586  C     0.96360   0.49301   0.77222   0.00000  Uiso   1.00
C6587  C     0.97491   0.58159   0.94202   0.00000  Uiso   1.00
C6588  C     1.20289   0.53804   0.95386   0.00000  Uiso   1.00
H6589  H     1.19438   0.65096   0.92497   0.00000  Uiso   1.00
C6590  C     0.95684   0.48129   0.74658   0.00000  Uiso   1.00
C6591  C     0.98535   0.51560   0.77008   0.00000  Uiso   1.00
H6592  H     1.15827   0.70964   0.93728   0.00000  Uiso   1.00
C6593  C     0.89519   0.66588   0.73667   0.00000  Uiso   1.00
H6594  H     1.02813   0.63738   0.91443   0.00000  Uiso   1.00
H6595  H     1.13921   0.64294   0.75870   0.00000  Uiso   1.00
C6596  C     1.00985   0.65064   0.91452   0.00000  Uiso   1.00
H6597  H     0.98495   0.51795   0.93432   0.00000  Uiso   1.00
O6598  O     1.07262   0.66443   0.96484   0.00000  Uiso   1.00
C6599  C     1.01402   0.49819   0.90461   0.00000  Uiso   1.00
C6600  C     0.89770   0.63730   0.73714   0.00000  Uiso   1.00
H6601  H     0.94153   0.69270   0.90618   0.00000  Uiso   1.00
N6602  N     1.19277   0.48644   0.91206   0.00000  Uiso   1.00
H6603  H     0.94685   0.54155   0.90577   0.00000  Uiso   1.00
C6604  C     0.95268   0.48127   0.79582   0.00000  Uiso   1.00
H6605  H     1.04534   0.57738   0.77283   0.00000  Uiso   1.00
C6606  C     0.91369   0.68128   0.75356   0.00000  Uiso   1.00
H6607  H     1.01555   0.49808   0.74237   0.00000  Uiso   1.00
H6608  H     1.02982   0.62937   0.83198   0.00000  Uiso   1.00
H6609  H     1.12722   0.49338   0.88639   0.00000  Uiso   1.00
C6610  C     1.02085   0.62826   0.85375   0.00000  Uiso   1.00
H6611  H     1.04320   0.57237   0.82369   0.00000  Uiso   1.00
C6612  C     1.10774   0.69992   0.72357   0.00000  Uiso   1.00
C6613  C     0.99945   0.65885   0.88921   0.00000  Uiso   1.00
H6614  H     1.01048   0.51905   0.86360   0.00000  Uiso   1.00
H6615  H     1.05502   0.67476   0.84351   0.00000  Uiso   1.00
N6616  N     0.97773   0.69562   0.78465   0.00000  Uiso   1.00
O6617  O     0.95397   0.68107   0.95828   0.00000  Uiso   1.00
C6618  C     0.97579   0.67501   0.88642   0.00000  Uiso   1.00
C6619  C     0.99639   0.51032   0.74006   0.00000  Uiso   1.00
C6620  C     1.04332   0.67571   0.86420   0.00000  Uiso   1.00
C6621  C     0.93901   0.64091   0.76435   0.00000  Uiso   1.00
C6622  C     1.01537   0.65924   0.86129   0.00000  Uiso   1.00
C6623  C     1.12008   0.49743   0.90674   0.00000  Uiso   1.00
C6624  C     0.92089   0.62510   0.75021   0.00000  Uiso   1.00
C6625  C     0.93817   0.61371   0.89971   0.00000  Uiso   1.00
O6626  O     0.96347   0.62964   0.77777   0.00000  Uiso   1.00
H6627  H     0.99041   0.65940   0.82425   0.00000  Uiso   1.00
C6628  C     0.97591   0.54516   0.77117   0.00000  Uiso   1.00
C6629  C     0.95150   0.55778   0.76229   0.00000  Uiso   1.00
H6630  H     0.91318   0.71237   0.88599   0.00000  Uiso   1.00
H6631  H     0.95794   0.61614   0.89064   0.00000  Uiso   1.00
H6632  H     1.00461   0.61267   0.85351   0.00000  Uiso   1.00
C6633  C     1.17511   0.71739   0.95006   0.00000  Uiso   1.00
H6634  H     1.16818   0.59102   0.88531   0.00000  Uiso   1.00
C6635  C     0.99630   0.67398   0.83982   0.00000  Uiso   1.00
H6636  H     1.17546   0.55814   0.91789   0.00000  Uiso   1.00
H6637  H     1.16359   0.48746   0.82464   0.00000  Uiso   1.00
C6638  C     0.96177   0.68262   0.91027   0.00000  Uiso   1.00
H6639  H     1.00650   0.60289   0.79762   0.00000  Uiso   1.00
C6640  C     0.97139   0.67334   0.93550   0.00000  Uiso   1.00
C6641  C     1.01780   0.54540   0.79568   0.00000  Uiso   1.00
C6642  C     0.94179   0.64250   0.83554   0.00000  Uiso   1.00
H6643  H     1.05984   0.54183   0.78167   0.00000  Uiso   1.00
H6644  H     0.93544   0.54448   0.75488   0.00000  Uiso   1.00
H6645  H     1.21443   0.62689   0.82149   0.00000  Uiso   1.00
C6646  C     1.16436   0.59962   0.93004   0.00000  Uiso   1.00
C6647  C     0.94510   0.56110   0.89368   0.00000  Uiso   1.00
H6648  H     1.04945   0.49544   0.87787   0.00000  Uiso   1.00
H6649  H     1.06628   0.68177   0.72483   0.00000  Uiso   1.00
H6650  H     1.00881   0.54208   0.91560   0.00000  Uiso   1.00
C6651  C     0.95892   0.68427   0.77576   0.00000  Uiso   1.00
H6652  H     1.11778   0.47902   0.84940   0.00000  Uiso   1.00
H6653  H     1.03816   0.53521   0.83658   0.00000  Uiso   1.00
H6654  H     1.01081   0.56008   0.83921   0.00000  Uiso   1.00
H6655  H     1.21711   0.54005   0.93532   0.00000  Uiso   1.00
H6656  H     0.93469   0.62868   0.91658   0.00000  Uiso   1.00
C6657  C     1.09443   0.64767   0.95881   0.00000  Uiso   1.00
H6658  H     1.19967   0.62935   0.85387   0.00000  Uiso   1.00
H6659  H     0.95955   0.48868   0.81644   0.00000  Uiso   1.00
C6660  C     1.21738   0.63619   0.84197   0.00000  Uiso   1.00
C6661  C     0.97026   0.68272   0.85626   0.00000  Uiso   1.00
C6662  C     0.96746   0.60247   0.77423   0.00000  Uiso   1.00
C6663  C     1.10905   0.47454   0.82902   0.00000  Uiso   1.00
H6664  H     0.95867   0.62873   0.84077   0.00000  Uiso   1.00
H6665  H     1.03801   0.62224   0.86753   0.00000  Uiso   1.00
H6666  H     1.00254   0.52966   0.72892   0.00000  Uiso   1.00
H6667  H     1.12131   0.58292   0.86694   0.00000  Uiso   1.00
N6668  N     1.08126   0.56839   0.95632   0.00000  Uiso   1.00
C6669  C     1.14074   0.61588   0.94358   0.00000  Uiso   1.00
H6670  H     1.13556   0.65987   0.88505   0.00000  Uiso   1.00
H6671  H     0.89651   0.55716   0.91583   0.00000  Uiso   1.00
H6672  H     0.93252   0.55408   0.87671   0.00000  Uiso   1.00
C6673  C     1.16062   0.60799   0.90054   0.00000  Uiso   1.00
H6674  H     1.12065   0.67264   0.77209   0.00000  Uiso   1.00
H6675  H     1.03957   0.69485   0.87397   0.00000  Uiso   1.00
C6676  C     0.90208   0.57876   0.91899   0.00000  Uiso   1.00
H6677  H     1.00068   0.50472   0.81059   0.00000  Uiso   1.00
H6678  H     1.02571   0.50236   0.78664   0.00000  Uiso   1.00
C6679  C     0.93335   0.71735   0.84496   0.00000  Uiso   1.00
H6680  H     1.13866   0.63489   0.85650   0.00000  Uiso   1.00
C6681  C     1.00694   0.52121   0.92645   0.00000  Uiso   1.00
C6682  C     0.92437   0.68753   0.83739   0.00000  Uiso   1.00
H6683  H     1.11817   0.57347   0.89900   0.00000  Uiso   1.00
H6684  H     0.90841   0.62890   0.96342   0.00000  Uiso   1.00
C6685  C     1.11365   0.59144   0.88627   0.00000  Uiso   1.00
C6686  C     1.04563   0.49648   0.89950   0.00000  Uiso   1.00
H6687  H     1.05699   0.51498   0.90652   0.00000  Uiso   1.00
H6688  H     1.10238   0.51171   0.90516   0.00000  Uiso   1.00
C6689  C     1.12827   0.63972   0.87633   0.00000  Uiso   1.00
H6690  H     1.09093   0.59551   0.88648   0.00000  Uiso   1.00
O6691  O     0.90991   0.71046   0.75736   0.00000  Uiso   1.00
H6692  H     1.10125   0.64904   0.75510   0.00000  Uiso   1.00
C6693  C     0.93145   0.58426   0.91071   0.00000  Uiso   1.00
H6694  H     1.05833   0.66415   0.87781   0.00000  Uiso   1.00
C6695  C     0.94475   0.66924   0.84260   0.00000  Uiso   1.00
H6696  H     1.03889   0.54625   0.75309   0.00000  Uiso   1.00
C6697  C     1.13078   0.61574   0.89652   0.00000  Uiso   1.00
C6698  C     1.15571   0.68850   0.72674   0.00000  Uiso   1.00
C6699  C     1.12145   0.62483   0.92424   0.00000  Uiso   1.00
H6700  H     1.14701   0.49300   0.79083   0.00000  Uiso   1.00
H6701  H     1.17163   0.62751   0.89629   0.00000  Uiso   1.00
H6702  H     1.08490   0.64460   0.91471   0.00000  Uiso   1.00
C6703  C     0.91786   0.63174   0.82422   0.00000  Uiso   1.00
C6704  C     1.15620   0.47770   0.80544   0.00000  Uiso   1.00
C6705  C     0.97523   0.49441   0.72454   0.00000  Uiso   1.00
C6706  C     0.99066   0.59101   0.78758   0.00000  Uiso   1.00
C6707  C     1.00047   0.50293   0.87750   0.00000  Uiso   1.00
H6708  H     0.98647   0.58755   0.92468   0.00000  Uiso   1.00
C6709  C     1.19055   0.61012   0.94367   0.00000  Uiso   1.00
H6710  H     1.00558   0.69036   0.82850   0.00000  Uiso   1.00
H6711  H     1.16679   0.68542   0.74614   0.00000  Uiso   1.00
C6712  C     1.20288   0.63463   0.93883   0.00000  Uiso   1.00
C6713  C     0.94699   0.58566   0.76210   0.00000  Uiso   1.00
C6714  C     0.99497   0.65725   0.93751   0.00000  Uiso   1.00
H6715  H     0.92330   0.61672   0.88443   0.00000  Uiso   1.00
H6716  H     0.97317   0.72175   0.83143   0.00000  Uiso   1.00
H6717  H     1.10679   0.64352   0.87120   0.00000  Uiso   1.00
C6718  C     1.09812   0.63866   0.93228   0.00000  Uiso   1.00
H6719  H     1.02292   0.52300   0.94184   0.00000  Uiso   1.00
O6720  O     0.91720   0.60396   0.81971   0.00000  Uiso   1.00
O6721  O     1.01427   0.57601   0.97143   0.00000  Uiso   1.00
C6722  C     1.12699   0.67476   0.72751   0.00000  Uiso   1.00
C6723  C     0.98598   0.57578   0.96792   0.00000  Uiso   1.00
C6724  C     0.93681   0.66913   0.76457   0.00000  Uiso   1.00
H6725  H     1.13608   0.50939   0.91849   0.00000  Uiso   1.00
C6726  C     0.99402   0.56220   0.78548   0.00000  Uiso   1.00
C6727  C     0.96428   0.71336   0.85012   0.00000  Uiso   1.00
H6728  H     0.97924   0.51012   0.87998   0.00000  Uiso   1.00
C6729  C     0.90876   0.55064   0.82409   0.00000  Uiso   1.00
H6730  H     1.00118   0.48424   0.86457   0.00000  Uiso   1.00
C6731  C     1.00893   0.51573   0.79246   0.00000  Uiso   1.00
O6732  O     0.92242   0.59675   0.75019   0.00000  Uiso   1.00
H6733  H     1.10115   0.49459   0.81972   0.00000  Uiso   1.00
C6734  C     1.12238   0.65886   0.75463   0.00000  Uiso   1.00
C6735  C     1.06769   0.47720   0.94623   0.00000  Uiso   1.00
C6736  C     1.05136   0.48255   0.96890   0.00000  Uiso   1.00
C6737  C     0.90019   0.58386   0.95058   0.00000  Uiso   1.00
H6738  H     0.96420   0.56759   0.88582   0.00000  Uiso   1.00
H6739  H     1.14444   0.55968   0.94010   0.00000  Uiso   1.00
C6740  C     0.88956   0.59371   0.81750   0.00000  Uiso   1.00
O6741  O     1.00302   0.64845   0.96428   0.00000  Uiso   1.00
N6742  N     1.01678   0.71087   0.96319   0.00000  Uiso   1.00
C6743  C     1.07921   0.70105   0.72514   0.00000  Uiso   1.00
H6744  H     1.21550   0.66014   0.83708   0.00000  Uiso   1.00
C6745  C     0.92852   0.57843   0.96120   0.00000  Uiso   1.00
H6746  H     1.02811   0.48374   0.96481   0.00000  Uiso   1.00
C6747  C     0.89851   0.67845   0.82729   0.00000  Uiso   1.00
C6748  C     1.21302   0.48275   0.89970   0.00000  Uiso   1.00
H6749  H     1.18858   0.52086   0.95278   0.00000  Uiso   1.00
C6750  C     0.89077   0.61503   0.95662   0.00000  Uiso   1.00
C6751  C     1.18486   0.56329   0.95957   0.00000  Uiso   1.00
C6752  C     1.20304   0.58968   0.95925   0.00000  Uiso   1.00
H6753  H     1.21636   0.53169   0.97062   0.00000  Uiso   1.00
H6754  H     0.90103   0.48806   0.96681   0.00000  Uiso   1.00
C6755  C     1.13743   0.62335   0.97068   0.00000  Uiso   1.00
H6756  H     1.21743   0.58042   0.87418   0.00000  Uiso   1.00
H6757  H     1.18305   0.72131   0.75451   0.00000  Uiso   1.00
C6758  C     0.95058   0.58434   1.18294   0.00000  Uiso   1.00
C6759  C     1.10140   0.55993   1.10190   0.00000  Uiso   1.00
C6760  C     0.99057   0.55159   1.18993   0.00000  Uiso   1.00
O6761  O     0.92525   0.61880   1.11960   0.00000  Uiso   1.00
O6762  O     1.09158   0.55681   1.02519   0.00000  Uiso   1.00
C6763  C     1.08847   0.55902   1.07576   0.00000  Uiso   1.00
N6764  N     1.04533   0.62638   1.01746   0.00000  Uiso   1.00
H6765  H     1.16012   0.57339   0.99591   0.00000  Uiso   1.00
C6766  C     1.17408   0.57583   1.08571   0.00000  Uiso   1.00
C6767  C     0.92475   0.64509   1.07255   0.00000  Uiso   1.00
C6768  C     1.10820   0.48368   0.97336   0.00000  Uiso   1.00
H6769  H     1.11171   0.52963   1.18647   0.00000  Uiso   1.00
O6770  O     1.11459   0.64779   1.00576   0.00000  Uiso   1.00
C6771  C     1.14389   0.56964   1.07935   0.00000  Uiso   1.00
C6772  C     1.10415   0.55954   1.05147   0.00000  Uiso   1.00
C6773  C     1.02531   0.63946   1.01654   0.00000  Uiso   1.00
C6774  C     1.04739   0.55673   1.04823   0.00000  Uiso   1.00
C6775  C     1.02344   0.56943   0.99672   0.00000  Uiso   1.00
O6776  O     1.05918   0.55395   1.07394   0.00000  Uiso   1.00
C6777  C     0.91418   0.48120   0.98452   0.00000  Uiso   1.00
H6778  H     1.18026   0.61915   1.06804   0.00000  Uiso   1.00
C6779  C     0.90016   0.62832   1.11114   0.00000  Uiso   1.00
H6780  H     1.17363   0.60475   1.11983   0.00000  Uiso   1.00
C6781  C     0.96599   0.70013   1.16110   0.00000  Uiso   1.00
H6782  H     1.08895   0.55747   1.12192   0.00000  Uiso   1.00
C6783  C     1.05159   0.56504   0.99957   0.00000  Uiso   1.00
C6784  C     1.05766   0.48031   1.09145   0.00000  Uiso   1.00
N6785  N     1.14100   0.67584   1.06587   0.00000  Uiso   1.00
C6786  C     0.92646   0.60793   1.14522   0.00000  Uiso   1.00
C6787  C     1.14633   0.54434   1.14592   0.00000  Uiso   1.00
C6788  C     1.08995   0.48836   1.04429   0.00000  Uiso   1.00
C6789  C     0.95765   0.69200   1.00644   0.00000  Uiso   1.00
H6790  H     1.19134   0.56761   1.17420   0.00000  Uiso   1.00
H6791  H     1.18908   0.59257   1.04493   0.00000  Uiso   1.00
C6792  C     0.99040   0.66834   1.03528   0.00000  Uiso   1.00
C6793  C     0.94078   0.71235   1.16666   0.00000  Uiso   1.00
C6794  C     0.99721   0.59951   1.20810   0.00000  Uiso   1.00
C6795  C     1.18767   0.59721   1.06615   0.00000  Uiso   1.00
C6796  C     1.00568   0.56361   1.01952   0.00000  Uiso   1.00
C6797  C     0.89226   0.70834   1.14257   0.00000  Uiso   1.00
H6798  H     0.96812   0.59234   1.14402   0.00000  Uiso   1.00
C6799  C     1.01917   0.55663   1.04444   0.00000  Uiso   1.00
C6800  C     0.96912   0.56907   0.99033   0.00000  Uiso   1.00
H6801  H     1.17966   0.53195   1.09530   0.00000  Uiso   1.00
C6802  C     0.93850   0.69300   1.12428   0.00000  Uiso   1.00
H6803  H     1.12943   0.70357   0.98357   0.00000  Uiso   1.00
H6804  H     1.00282   0.68071   1.17761   0.00000  Uiso   1.00
C6805  C     0.90685   0.49354   1.05678   0.00000  Uiso   1.00
C6806  C     1.10108   0.68659   1.03263   0.00000  Uiso   1.00
O6807  O     1.04673   0.48736   1.01572   0.00000  Uiso   1.00
C6808  C     1.11189   0.63246   1.16958   0.00000  Uiso   1.00
H6809  H     1.14960   0.61300   0.98608   0.00000  Uiso   1.00
O6810  O     1.09586   0.65588   1.16540   0.00000  Uiso   1.00
C6811  C     1.22101   0.67918   1.02034   0.00000  Uiso   1.00
H6812  H     0.98438   0.71356   1.09544   0.00000  Uiso   1.00
C6813  C     1.07501   0.67637   0.99192   0.00000  Uiso   1.00
F6814  F     0.95952   0.70155   1.05525   0.00000  Uiso   1.00
C6815  C     1.00321   0.55117   1.06752   0.00000  Uiso   1.00
C6816  C     1.11948   0.61476   1.14827   0.00000  Uiso   1.00
C6817  C     1.09760   0.66182   1.21553   0.00000  Uiso   1.00
C6818  C     1.12126   0.62328   1.19598   0.00000  Uiso   1.00
C6819  C     0.97595   0.57623   1.20137   0.00000  Uiso   1.00
N6820  N     0.98926   0.54724   1.08673   0.00000  Uiso   1.00
H6821  H     0.89684   0.67583   1.17070   0.00000  Uiso   1.00
O6822  O     0.97835   0.56131   1.01569   0.00000  Uiso   1.00
H6823  H     1.13512   0.58985   1.22162   0.00000  Uiso   1.00
O6824  O     1.04025   0.47674   1.11530   0.00000  Uiso   1.00
C6825  C     0.94989   0.59579   1.15619   0.00000  Uiso   1.00
F6826  F     1.00300   0.66635   1.06071   0.00000  Uiso   1.00
N6827  N     0.94902   0.47210   1.18920   0.00000  Uiso   1.00
H6828  H     0.97749   0.65951   1.10371   0.00000  Uiso   1.00
C6829  C     1.12282   0.68124   1.05050   0.00000  Uiso   1.00
C6830  C     1.10156   0.48622   1.06995   0.00000  Uiso   1.00
C6831  C     1.13005   0.48938   1.07261   0.00000  Uiso   1.00
H6832  H     1.19096   0.57433   1.12787   0.00000  Uiso   1.00
O6833  O     1.09919   0.47873   1.12043   0.00000  Uiso   1.00
H6834  H     1.00369   0.54172   1.20697   0.00000  Uiso   1.00
C6835  C     1.06051   0.71399   1.02162   0.00000  Uiso   1.00
C6836  C     1.17551   0.55849   0.98860   0.00000  Uiso   1.00
H6837  H     1.20956   0.59811   1.07086   0.00000  Uiso   1.00
H6838  H     1.21111   0.54808   1.08812   0.00000  Uiso   1.00
H6839  H     0.93096   0.67124   1.12785   0.00000  Uiso   1.00
C6840  C     1.04528   0.47934   1.06504   0.00000  Uiso   1.00
H6841  H     1.12513   0.53495   1.14438   0.00000  Uiso   1.00
H6842  H     1.00224   0.66225   1.12795   0.00000  Uiso   1.00
C6843  C     1.14552   0.57076   1.12922   0.00000  Uiso   1.00
C6844  C     0.89508   0.48062   1.01059   0.00000  Uiso   1.00
C6845  C     0.93388   0.71902   1.19317   0.00000  Uiso   1.00
H6846  H     1.22088   0.64300   1.13307   0.00000  Uiso   1.00
C6847  C     1.06793   0.56682   0.97567   0.00000  Uiso   1.00
C6848  C     1.06377   0.70003   1.16031   0.00000  Uiso   1.00
N6849  N     1.05712   0.70584   1.13881   0.00000  Uiso   1.00
C6850  C     1.13386   0.59729   1.19976   0.00000  Uiso   1.00
H6851  H     1.21646   0.65780   1.08457   0.00000  Uiso   1.00
H6852  H     0.89724   0.57420   1.10467   0.00000  Uiso   1.00
C6853  C     1.08526   0.48265   1.09465   0.00000  Uiso   1.00
H6854  H     1.00596   0.55728   1.17403   0.00000  Uiso   1.00
C6855  C     1.09662   0.66906   1.01032   0.00000  Uiso   1.00
C6856  C     1.07318   0.69232   1.18666   0.00000  Uiso   1.00
H6857  H     1.16111   0.69744   1.00052   0.00000  Uiso   1.00
H6858  H     1.16121   0.52887   1.13779   0.00000  Uiso   1.00
C6859  C     1.06357   0.55989   1.02462   0.00000  Uiso   1.00
H6860  H     1.01144   0.60428   1.19161   0.00000  Uiso   1.00
H6861  H     0.91311   0.54411   1.06716   0.00000  Uiso   1.00
C6862  C     1.08402   0.71029   1.03686   0.00000  Uiso   1.00
C6863  C     0.95292   0.71563   1.21407   0.00000  Uiso   1.00
H6864  H     0.91649   0.50892   1.09766   0.00000  Uiso   1.00
C6865  C     0.89974   0.64349   1.08716   0.00000  Uiso   1.00
C6866  C     1.15092   0.55126   1.17644   0.00000  Uiso   1.00
C6867  C     0.98176   0.69089   1.18212   0.00000  Uiso   1.00
C6868  C     1.09229   0.48879   0.99738   0.00000  Uiso   1.00
C6869  C     0.98020   0.66551   1.12468   0.00000  Uiso   1.00
H6870  H     0.97723   0.53469   1.18283   0.00000  Uiso   1.00
H6871  H     1.19414   0.55850   1.00205   0.00000  Uiso   1.00
H6872  H     0.97086   0.64750   1.13602   0.00000  Uiso   1.00
H6873  H     1.22190   0.69810   1.00712   0.00000  Uiso   1.00
C6874  C     1.12888   0.56608   1.10373   0.00000  Uiso   1.00
H6875  H     0.89143   0.55723   1.04027   0.00000  Uiso   1.00
H6876  H     0.93516   0.69673   1.10207   0.00000  Uiso   1.00
C6877  C     1.08811   0.66766   1.18922   0.00000  Uiso   1.00
H6878  H     1.19945   0.70435   1.07660   0.00000  Uiso   1.00
C6879  C     1.06131   0.48468   1.04189   0.00000  Uiso   1.00
C6880  C     1.05633   0.69810   0.99833   0.00000  Uiso   1.00
H6881  H     1.20034   0.67133   1.02089   0.00000  Uiso   1.00
C6882  C     1.05365   0.47261   1.14101   0.00000  Uiso   1.00
C6883  C     1.13385   0.59066   1.15124   0.00000  Uiso   1.00
O6884  O     1.10688   0.49156   1.02109   0.00000  Uiso   1.00
C6885  C     1.03562   0.70480   0.97829   0.00000  Uiso   1.00
C6886  C     1.13853   0.58139   1.17735   0.00000  Uiso   1.00
C6887  C     1.18166   0.55061   1.18545   0.00000  Uiso   1.00
C6888  C     1.00091   0.65562   1.01333   0.00000  Uiso   1.00
H6889  H     0.93052   0.49438   0.98919   0.00000  Uiso   1.00
C6890  C     1.17367   0.58245   1.11725   0.00000  Uiso   1.00
C6891  C     0.96848   0.69446   1.13098   0.00000  Uiso   1.00
C6892  C     1.06361   0.48745   0.99436   0.00000  Uiso   1.00
H6893  H     1.11431   0.62073   1.12731   0.00000  Uiso   1.00
H6894  H     1.14433   0.56916   1.03577   0.00000  Uiso   1.00
C6895  C     1.18861   0.54671   1.08183   0.00000  Uiso   1.00
C6896  C     0.96856   0.68826   1.03226   0.00000  Uiso   1.00
H6897  H     0.92561   0.56857   1.00409   0.00000  Uiso   1.00
C6898  C     0.97549   0.69770   1.20918   0.00000  Uiso   1.00
H6899  H     1.18625   0.54124   1.06033   0.00000  Uiso   1.00
C6900  C     1.13249   0.56607   1.05429   0.00000  Uiso   1.00
O6901  O     1.11480   0.63814   1.21968   0.00000  Uiso   1.00
C6902  C     0.98987   0.66073   0.98677   0.00000  Uiso   1.00
C6903  C     0.96645   0.67680   0.98421   0.00000  Uiso   1.00
C6904  C     0.92666   0.53299   1.22020   0.00000  Uiso   1.00
H6905  H     1.18210   0.55204   1.20731   0.00000  Uiso   1.00
C6906  C     0.89187   0.54424   1.05845   0.00000  Uiso   1.00
C6907  C     1.13471   0.52800   1.19025   0.00000  Uiso   1.00
C6908  C     0.92644   0.58081   1.19813   0.00000  Uiso   1.00
H6909  H     0.90305   0.52551   1.01066   0.00000  Uiso   1.00
C6910  C     0.91867   0.49282   1.08195   0.00000  Uiso   1.00
N6911  N     0.94540   0.64643   1.06045   0.00000  Uiso   1.00
H6912  H     0.90661   0.71500   1.07737   0.00000  Uiso   1.00
C6913  C     0.94006   0.57302   0.98675   0.00000  Uiso   1.00
C6914  C     0.90285   0.59184   1.18743   0.00000  Uiso   1.00
H6915  H     1.16370   0.53958   0.98877   0.00000  Uiso   1.00
H6916  H     1.19451   0.53274   1.17852   0.00000  Uiso   1.00
H6917  H     0.92620   0.52391   1.19875   0.00000  Uiso   1.00
C6918  C     0.90225   0.60323   1.16082   0.00000  Uiso   1.00
C6919  C     1.14710   0.71389   0.99278   0.00000  Uiso   1.00
C6920  C     1.11520   0.63835   0.97893   0.00000  Uiso   1.00
H6921  H     0.98781   0.61859   1.21613   0.00000  Uiso   1.00
H6922  H     1.14342   0.50759   1.18833   0.00000  Uiso   1.00
C6923  C     1.21867   0.70890   1.06700   0.00000  Uiso   1.00
H6924  H     1.20379   0.49600   1.20173   0.00000  Uiso   1.00
C6925  C     1.06195   0.70497   1.20961   0.00000  Uiso   1.00
C6926  C     0.98574   0.71615   1.11761   0.00000  Uiso   1.00
H6927  H     0.89317   0.59335   1.01615   0.00000  Uiso   1.00
H6928  H     1.13384   0.53347   1.21213   0.00000  Uiso   1.00
H6929  H     0.90341   0.62928   1.01267   0.00000  Uiso   1.00
C6930  C     0.93516   0.71078   1.00298   0.00000  Uiso   1.00
H6931  H     1.13163   0.48428   0.97413   0.00000  Uiso   1.00
N6932  N     1.15321   0.49236   1.07549   0.00000  Uiso   1.00
C6933  C     0.92287   0.71528   1.14018   0.00000  Uiso   1.00
C6934  C     0.91143   0.47339   1.03713   0.00000  Uiso   1.00
H6935  H     1.17738   0.47743   1.21939   0.00000  Uiso   1.00
H6936  H     1.00675   0.71233   1.12336   0.00000  Uiso   1.00
H6937  H     1.00672   0.49296   1.21528   0.00000  Uiso   1.00
H6938  H     1.01295   0.47282   1.16192   0.00000  Uiso   1.00
H6939  H     1.11575   0.47854   1.22042   0.00000  Uiso   1.00
H6940  H     0.97509   0.76014   0.37555   0.00000  Uiso   1.00
H6941  H     1.03311   0.78445   0.44597   0.00000  Uiso   1.00
C6942  C     1.02353   0.72977   0.44355   0.00000  Uiso   1.00
C6943  C     0.95871   0.83848   0.38023   0.00000  Uiso   1.00
C6944  C     1.01950   0.78576   0.24618   0.00000  Uiso   1.00
H6945  H     1.10305   0.89559   0.43462   0.00000  Uiso   1.00
C6946  C     0.99062   0.74301   0.37707   0.00000  Uiso   1.00
C6947  C     0.97284   0.84212   0.40554   0.00000  Uiso   1.00
H6948  H     1.11726   0.77965   0.30120   0.00000  Uiso   1.00
O6949  O     1.15674   0.75650   0.24121   0.00000  Uiso   1.00
H6950  H     1.03745   0.78114   0.41109   0.00000  Uiso   1.00
O6951  O     0.93592   0.94643   0.43077   0.00000  Uiso   1.00
C6952  C     0.89237   0.73946   0.46719   0.00000  Uiso   1.00
C6953  C     1.00735   0.73727   0.39954   0.00000  Uiso   1.00
C6954  C     0.97008   0.96389   0.31828   0.00000  Uiso   1.00
C6955  C     1.01456   0.92530   0.38180   0.00000  Uiso   1.00
C6956  C     1.10484   0.91468   0.42151   0.00000  Uiso   1.00
C6957  C     0.95712   0.93379   0.44334   0.00000  Uiso   1.00
C6958  C     0.89149   0.82255   0.30701   0.00000  Uiso   1.00
H6959  H     1.08430   0.92480   0.41803   0.00000  Uiso   1.00
O6960  O     0.94842   0.72755   0.23996   0.00000  Uiso   1.00
H6961  H     1.06124   0.82319   0.29564   0.00000  Uiso   1.00
H6962  H     0.96367   0.82593   0.25480   0.00000  Uiso   1.00
H6963  H     1.03045   0.84079   0.27240   0.00000  Uiso   1.00
C6964  C     0.97755   0.75478   0.43880   0.00000  Uiso   1.00
H6965  H     1.05032   0.74855   0.29806   0.00000  Uiso   1.00
C6966  C     1.00751   0.87588   0.43277   0.00000  Uiso   1.00
H6967  H     1.16273   0.90717   0.42549   0.00000  Uiso   1.00
H6968  H     1.04196   0.82839   0.32486   0.00000  Uiso   1.00
C6969  C     1.04667   0.81280   0.30955   0.00000  Uiso   1.00
H6970  H     1.04729   0.89370   0.34940   0.00000  Uiso   1.00
C6971  C     0.99432   0.86168   0.40707   0.00000  Uiso   1.00
C6972  C     1.00298   0.87578   0.38324   0.00000  Uiso   1.00
C6973  C     0.98817   0.89646   0.44523   0.00000  Uiso   1.00
C6974  C     0.99840   0.79323   0.31196   0.00000  Uiso   1.00
H6975  H     0.95685   0.90236   0.41179   0.00000  Uiso   1.00
C6976  C     1.02953   0.78011   0.27218   0.00000  Uiso   1.00
C6977  C     1.02079   0.80302   0.29190   0.00000  Uiso   1.00
H6978  H     1.02245   0.91573   0.24529   0.00000  Uiso   1.00
O6979  O     0.93527   0.82393   0.38054   0.00000  Uiso   1.00
H6980  H     0.92264   0.94133   0.31576   0.00000  Uiso   1.00
H6981  H     0.99882   0.88086   0.33899   0.00000  Uiso   1.00
O6982  O     0.97196   0.73170   0.33378   0.00000  Uiso   1.00
H6983  H     1.07548   0.74708   0.42444   0.00000  Uiso   1.00
C6984  C     0.91951   0.85872   0.28752   0.00000  Uiso   1.00
H6985  H     1.03493   0.85081   0.45752   0.00000  Uiso   1.00
C6986  C     1.04097   0.74394   0.22753   0.00000  Uiso   1.00
C6987  C     1.15096   0.73701   0.32545   0.00000  Uiso   1.00
H6988  H     0.96674   0.83300   0.42630   0.00000  Uiso   1.00
C6989  C     0.97331   0.96054   0.24137   0.00000  Uiso   1.00
C6990  C     0.96215   0.72764   0.28724   0.00000  Uiso   1.00
H6991  H     1.00980   0.92987   0.35908   0.00000  Uiso   1.00
H6992  H     1.05497   0.79369   0.31973   0.00000  Uiso   1.00
C6993  C     0.99085   0.86997   0.35747   0.00000  Uiso   1.00
H6994  H     1.11211   0.90833   0.40054   0.00000  Uiso   1.00
C6995  C     1.00686   0.75032   0.42747   0.00000  Uiso   1.00
H6996  H     1.20577   0.76168   0.39238   0.00000  Uiso   1.00
C6997  C     1.00436   0.81183   0.24564   0.00000  Uiso   1.00
C6998  C     0.89346   0.78675   0.37468   0.00000  Uiso   1.00
O6999  O     0.95401   0.85478   0.33175   0.00000  Uiso   1.00
C7000  C     1.09661   0.72214   0.47016   0.00000  Uiso   1.00
C7001  C     0.97255   0.80893   0.24383   0.00000  Uiso   1.00
H7002  H     1.03649   0.73643   0.46195   0.00000  Uiso   1.00
C7003  C     0.96611   0.90883   0.43231   0.00000  Uiso   1.00
H7004  H     0.99395   0.80798   0.32813   0.00000  Uiso   1.00
C7005  C     1.20568   0.76123   0.23880   0.00000  Uiso   1.00
C7006  C     1.12898   0.75649   0.33833   0.00000  Uiso   1.00
C7007  C     0.96850   0.85243   0.35679   0.00000  Uiso   1.00
H7008  H     1.00561   0.77302   0.32176   0.00000  Uiso   1.00
C7009  C     0.89908   0.76803   0.45599   0.00000  Uiso   1.00
H7010  H     1.05744   0.86884   0.37095   0.00000  Uiso   1.00
C7011  C     1.17695   0.81741   0.44674   0.00000  Uiso   1.00
C7012  C     0.89998   0.80388   0.35221   0.00000  Uiso   1.00
N7013  N     0.88947   0.87556   0.44284   0.00000  Uiso   1.00
O7014  O     1.13082   0.81032   0.42539   0.00000  Uiso   1.00
C7015  C     0.95798   0.95592   0.29055   0.00000  Uiso   1.00
C7016  C     0.94390   0.74956   0.29126   0.00000  Uiso   1.00
C7017  C     1.05185   0.88968   0.37144   0.00000  Uiso   1.00
H7018  H     0.92283   0.92809   0.27810   0.00000  Uiso   1.00
H7019  H     0.99543   0.83976   0.28054   0.00000  Uiso   1.00
N7020  N     0.92905   0.76846   0.29545   0.00000  Uiso   1.00
C7021  C     1.01193   0.82703   0.27353   0.00000  Uiso   1.00
C7022  C     1.00073   0.96907   0.22677   0.00000  Uiso   1.00
C7023  C     1.02614   0.89659   0.39007   0.00000  Uiso   1.00
C7024  C     1.02145   0.77980   0.42699   0.00000  Uiso   1.00
C7025  C     0.93078   0.83819   0.33217   0.00000  Uiso   1.00
O7026  O     1.18910   0.79888   0.42814   0.00000  Uiso   1.00
H7027  H     1.06904   0.90561   0.37575   0.00000  Uiso   1.00
H7028  H     0.90458   0.78484   0.47051   0.00000  Uiso   1.00
C7029  C     0.98012   0.94893   0.26937   0.00000  Uiso   1.00
C7030  C     1.14067   0.76690   0.36489   0.00000  Uiso   1.00
H7031  H     1.11523   0.95980   0.39946   0.00000  Uiso   1.00
C7032  C     1.18319   0.76603   0.38997   0.00000  Uiso   1.00
H7033  H     1.10517   0.78432   0.38491   0.00000  Uiso   1.00
H7034  H     1.15088   0.95796   0.40190   0.00000  Uiso   1.00
H7035  H     1.00589   0.79631   0.42205   0.00000  Uiso   1.00
C7036  C     0.92275   0.82166   0.35529   0.00000  Uiso   1.00
C7037  C     1.16650   0.75608   0.36928   0.00000  Uiso   1.00
H7038  H     0.97908   0.78947   0.30323   0.00000  Uiso   1.00
C7039  C     1.12785   0.78141   0.38545   0.00000  Uiso   1.00
C7040  C     1.10161   0.73934   0.34052   0.00000  Uiso   1.00
H7041  H     1.02847   0.94144   0.39108   0.00000  Uiso   1.00
C7042  C     1.13753   0.83697   0.46596   0.00000  Uiso   1.00
C7043  C     1.14333   0.79322   0.40613   0.00000  Uiso   1.00
C7044  C     1.15138   0.91553   0.44308   0.00000  Uiso   1.00
N7045  N     0.88927   0.77175   0.39268   0.00000  Uiso   1.00
H7046  H     0.96512   0.73594   0.43197   0.00000  Uiso   1.00
H7047  H     1.11600   0.80085   0.33210   0.00000  Uiso   1.00
C7048  C     1.14933   0.82222   0.44419   0.00000  Uiso   1.00
C7049  C     1.17182   0.78662   0.40771   0.00000  Uiso   1.00
H7050  H     0.96633   0.77294   0.43273   0.00000  Uiso   1.00
C7051  C     0.93605   0.93366   0.29687   0.00000  Uiso   1.00
H7052  H     0.96399   0.79107   0.25409   0.00000  Uiso   1.00
H7053  H     0.98486   0.92705   0.26923   0.00000  Uiso   1.00
H7054  H     1.14789   0.79049   0.31440   0.00000  Uiso   1.00
C7055  C     1.12705   0.78328   0.32167   0.00000  Uiso   1.00
H7056  H     1.17668   0.96801   0.44823   0.00000  Uiso   1.00
H7057  H     1.04932   0.84341   0.22951   0.00000  Uiso   1.00
C7058  C     1.04407   0.75541   0.27703   0.00000  Uiso   1.00
H7059  H     0.99611   0.93081   0.39220   0.00000  Uiso   1.00
C7060  C     0.99256   0.72643   0.35404   0.00000  Uiso   1.00
H7061  H     1.03327   0.91414   0.43041   0.00000  Uiso   1.00
H7062  H     1.16154   0.74660   0.30731   0.00000  Uiso   1.00
C7063  C     1.17258   0.73178   0.34767   0.00000  Uiso   1.00
H7064  H     0.99986   0.95923   0.27639   0.00000  Uiso   1.00
H7065  H     0.91497   0.76858   0.43924   0.00000  Uiso   1.00
C7066  C     1.12747   0.93425   0.43355   0.00000  Uiso   1.00
H7067  H     1.21250   0.75518   0.30696   0.00000  Uiso   1.00
C7068  C     1.03235   0.89386   0.42109   0.00000  Uiso   1.00
C7069  C     1.11466   0.94741   0.45888   0.00000  Uiso   1.00
H7070  H     0.94709   0.91514   0.30390   0.00000  Uiso   1.00
N7071  N     0.92443   0.87479   0.26994   0.00000  Uiso   1.00
C7072  C     1.20449   0.72963   0.34256   0.00000  Uiso   1.00
H7073  H     0.97869   0.75585   0.46212   0.00000  Uiso   1.00
C7074  C     1.21892   0.81950   0.47200   0.00000  Uiso   1.00
H7075  H     1.05145   0.88226   0.42578   0.00000  Uiso   1.00
C7076  C     1.10920   0.83964   0.46693   0.00000  Uiso   1.00
N7077  N     1.08547   0.84320   0.46868   0.00000  Uiso   1.00
C7078  C     1.18204   0.74666   0.24605   0.00000  Uiso   1.00
C7079  C     1.04990   0.73763   0.25470   0.00000  Uiso   1.00
H7080  H     0.98213   0.94598   0.32460   0.00000  Uiso   1.00
C7081  C     1.13277   0.95868   0.41463   0.00000  Uiso   1.00
C7082  C     0.91380   0.83972   0.30899   0.00000  Uiso   1.00
C7083  C     1.01498   0.85949   0.45861   0.00000  Uiso   1.00
O7084  O     1.20521   0.78757   0.22831   0.00000  Uiso   1.00
H7085  H     1.08621   0.75207   0.35265   0.00000  Uiso   1.00
C7086  C     1.02924   0.92419   0.22451   0.00000  Uiso   1.00
C7087  C     0.96891   0.94495   0.46841   0.00000  Uiso   1.00
H7088  H     1.05052   0.93440   0.22724   0.00000  Uiso   1.00
H7089  H     1.00067   0.84260   0.46146   0.00000  Uiso   1.00
C7090  C     1.15645   0.78033   0.22352   0.00000  Uiso   1.00
C7091  C     1.21979   0.74413   0.32433   0.00000  Uiso   1.00
H7092  H     1.14636   0.89561   0.45520   0.00000  Uiso   1.00
C7093  C     1.02468   0.76771   0.22486   0.00000  Uiso   1.00
H7094  H     1.10995   0.73986   0.46782   0.00000  Uiso   1.00
H7095  H     0.91895   0.94009   0.23282   0.00000  Uiso   1.00
N7096  N     0.90523   0.97131   0.36947   0.00000  Uiso   1.00
H7097  H     1.09375   0.73317   0.32105   0.00000  Uiso   1.00
H7098  H     1.16604   0.92661   0.45516   0.00000  Uiso   1.00
H7099  H     0.93285   0.72685   0.47162   0.00000  Uiso   1.00
H7100  H     0.92071   0.72303   0.41970   0.00000  Uiso   1.00
C7101  C     1.07317   0.72554   0.42374   0.00000  Uiso   1.00
C7102  C     0.96184   0.93878   0.22222   0.00000  Uiso   1.00
C7103  C     1.19215   0.82652   0.46872   0.00000  Uiso   1.00
H7104  H     0.95215   0.96567   0.33375   0.00000  Uiso   1.00
C7105  C     0.99556   0.90305   0.47177   0.00000  Uiso   1.00
C7106  C     1.16789   0.96648   0.68145   0.00000  Uiso   1.00
H7107  H     1.10649   0.92087   0.68057   0.00000  Uiso   1.00
H7108  H     0.98107   0.85581   0.64271   0.00000  Uiso   1.00
C7109  C     1.19536   0.87908   0.60919   0.00000  Uiso   1.00
H7110  H     0.92059   0.83366   0.52677   0.00000  Uiso   1.00
H7111  H     0.91102   0.87134   0.60896   0.00000  Uiso   1.00
C7112  C     0.91556   0.81467   0.70519   0.00000  Uiso   1.00
H7113  H     1.06480   0.73588   0.56072   0.00000  Uiso   1.00
C7114  C     1.18253   0.86188   0.53267   0.00000  Uiso   1.00
C7115  C     1.08977   0.95228   0.50238   0.00000  Uiso   1.00
C7116  C     1.07918   0.72675   0.54576   0.00000  Uiso   1.00
O7117  O     1.20129   0.76303   0.62632   0.00000  Uiso   1.00
C7118  C     1.04284   0.89324   0.49063   0.00000  Uiso   1.00
H7119  H     1.17345   0.84290   0.62398   0.00000  Uiso   1.00
C7120  C     0.92776   0.81797   0.54100   0.00000  Uiso   1.00
H7121  H     1.11870   0.88750   0.68030   0.00000  Uiso   1.00
C7122  C     0.95546   0.81901   0.58675   0.00000  Uiso   1.00
O7123  O     1.02600   0.94208   0.60896   0.00000  Uiso   1.00
C7124  C     0.97215   0.94761   0.71607   0.00000  Uiso   1.00
H7125  H     1.17258   0.89677   0.64520   0.00000  Uiso   1.00
C7126  C     0.93484   0.83406   0.56764   0.00000  Uiso   1.00
C7127  C     1.03554   0.95563   0.58620   0.00000  Uiso   1.00
C7128  C     1.19009   0.75077   0.64950   0.00000  Uiso   1.00
C7129  C     1.00272   0.95384   0.71022   0.00000  Uiso   1.00
O7130  O     0.96183   0.94329   0.58578   0.00000  Uiso   1.00
C7131  C     0.90489   0.96920   0.50949   0.00000  Uiso   1.00
C7132  C     1.11984   0.90768   0.66875   0.00000  Uiso   1.00
C7133  C     1.05343   0.91286   0.56856   0.00000  Uiso   1.00
C7134  C     0.90564   0.83692   0.58045   0.00000  Uiso   1.00
C7135  C     0.91626   0.73145   0.48575   0.00000  Uiso   1.00
C7136  C     0.96429   0.86818   0.58563   0.00000  Uiso   1.00
C7137  C     1.19045   0.92329   0.71087   0.00000  Uiso   1.00
C7138  C     0.94874   0.95926   0.70571   0.00000  Uiso   1.00
H7139  H     1.12300   0.89493   0.55334   0.00000  Uiso   1.00
C7140  C     0.94616   0.91069   0.55118   0.00000  Uiso   1.00
C7141  C     0.91318   0.77172   0.55776   0.00000  Uiso   1.00
C7142  C     0.96930   0.89514   0.59213   0.00000  Uiso   1.00
H7143  H     0.96921   0.80538   0.57447   0.00000  Uiso   1.00
C7144  C     1.00363   0.86728   0.50875   0.00000  Uiso   1.00
C7145  C     1.21442   0.74121   0.55482   0.00000  Uiso   1.00
O7146  O     1.13813   0.86577   0.50751   0.00000  Uiso   1.00
H7147  H     0.89358   0.78533   0.50816   0.00000  Uiso   1.00
H7148  H     0.94428   0.80514   0.60086   0.00000  Uiso   1.00
H7149  H     0.94489   0.84942   0.63910   0.00000  Uiso   1.00
C7150  C     0.89026   0.76530   0.70852   0.00000  Uiso   1.00
H7151  H     1.05649   0.87714   0.49936   0.00000  Uiso   1.00
H7152  H     1.18288   0.92071   0.61954   0.00000  Uiso   1.00
C7153  C     1.14266   0.88497   0.55462   0.00000  Uiso   1.00
H7154  H     1.19972   0.85469   0.64619   0.00000  Uiso   1.00
C7155  C     1.00245   0.83698   0.59677   0.00000  Uiso   1.00
C7156  C     0.97166   0.84149   0.60132   0.00000  Uiso   1.00
C7157  C     0.89633   0.85472   0.60135   0.00000  Uiso   1.00
O7158  O     1.19716   0.85279   0.50971   0.00000  Uiso   1.00
H7159  H     1.01619   0.91275   0.70380   0.00000  Uiso   1.00
C7160  C     0.95989   0.91761   0.57623   0.00000  Uiso   1.00
C7161  C     1.12453   0.88363   0.61987   0.00000  Uiso   1.00
C7162  C     1.05030   0.94113   0.56572   0.00000  Uiso   1.00
C7163  C     1.19522   0.76345   0.67545   0.00000  Uiso   1.00
H7164  H     1.10881   0.87847   0.60263   0.00000  Uiso   1.00
H7165  H     1.00778   0.81729   0.60521   0.00000  Uiso   1.00
H7166  H     1.00734   0.83685   0.57454   0.00000  Uiso   1.00
H7167  H     0.90162   0.88447   0.70135   0.00000  Uiso   1.00
C7168  C     0.93840   0.88319   0.54656   0.00000  Uiso   1.00
C7169  C     1.15415   0.87162   0.53137   0.00000  Uiso   1.00
H7170  H     1.21710   0.85593   0.55878   0.00000  Uiso   1.00
H7171  H     1.00615   0.87903   0.52664   0.00000  Uiso   1.00
O7172  O     0.93596   0.92971   0.53392   0.00000  Uiso   1.00
C7173  C     1.10258   0.95778   0.62876   0.00000  Uiso   1.00
H7174  H     1.07098   0.90083   0.61646   0.00000  Uiso   1.00
N7175  N     1.05736   0.88899   0.56994   0.00000  Uiso   1.00
H7176  H     1.07198   0.72828   0.52466   0.00000  Uiso   1.00
H7177  H     1.10449   0.91361   0.48464   0.00000  Uiso   1.00
H7178  H     1.20742   0.78353   0.67604   0.00000  Uiso   1.00
H7179  H     0.98189   0.86118   0.50604   0.00000  Uiso   1.00
C7180  C     1.13561   0.92970   0.60344   0.00000  Uiso   1.00
H7181  H     1.13400   0.86449   0.62895   0.00000  Uiso   1.00
H7182  H     1.07563   0.87595   0.64306   0.00000  Uiso   1.00
C7183  C     1.07935   0.89775   0.63779   0.00000  Uiso   1.00
N7184  N     0.89949   0.96621   0.48629   0.00000  Uiso   1.00
C7185  C     1.15870   0.96033   0.70796   0.00000  Uiso   1.00
H7186  H     1.01402   0.84771   0.51262   0.00000  Uiso   1.00
C7187  C     1.11505   0.93214   0.62253   0.00000  Uiso   1.00
C7188  C     1.19967   0.92798   0.68392   0.00000  Uiso   1.00
H7189  H     1.06868   0.91229   0.65174   0.00000  Uiso   1.00
H7190  H     1.00323   0.92512   0.65645   0.00000  Uiso   1.00
C7191  C     0.94583   0.86295   0.56489   0.00000  Uiso   1.00
C7192  C     1.01449   0.88037   0.48286   0.00000  Uiso   1.00
C7193  C     1.15190   0.84878   0.48749   0.00000  Uiso   1.00
C7194  C     1.06300   0.95514   0.54320   0.00000  Uiso   1.00
C7195  C     1.10478   0.93646   0.48308   0.00000  Uiso   1.00
C7196  C     0.98460   0.92745   0.48417   0.00000  Uiso   1.00
O7197  O     1.07893   0.93899   0.52502   0.00000  Uiso   1.00
H7198  H     1.01564   0.85237   0.60755   0.00000  Uiso   1.00
H7199  H     0.96614   0.82177   0.64026   0.00000  Uiso   1.00
H7200  H     0.98042   0.90025   0.61165   0.00000  Uiso   1.00
C7201  C     0.90252   0.80014   0.54832   0.00000  Uiso   1.00
C7202  C     1.14294   0.95107   0.58672   0.00000  Uiso   1.00
H7203  H     0.94480   0.80696   0.53045   0.00000  Uiso   1.00
C7204  C     1.19456   0.85081   0.62394   0.00000  Uiso   1.00
H7205  H     0.92687   0.87870   0.52761   0.00000  Uiso   1.00
C7206  C     1.18454   0.87492   0.58114   0.00000  Uiso   1.00
C7207  C     1.15768   0.88645   0.57932   0.00000  Uiso   1.00
C7208  C     0.96512   0.84258   0.63232   0.00000  Uiso   1.00
C7209  C     1.19574   0.86340   0.55757   0.00000  Uiso   1.00
C7210  C     1.14750   0.89988   0.60539   0.00000  Uiso   1.00
C7211  C     1.17512   0.89952   0.62248   0.00000  Uiso   1.00
H7212  H     1.14160   0.91442   0.67086   0.00000  Uiso   1.00
C7213  C     1.10996   0.90456   0.63796   0.00000  Uiso   1.00
H7214  H     0.99314   0.93525   0.50496   0.00000  Uiso   1.00
C7215  C     1.19813   0.74780   0.60188   0.00000  Uiso   1.00
C7216  C     1.18918   0.95046   0.66975   0.00000  Uiso   1.00
C7217  C     1.01869   0.95772   0.63102   0.00000  Uiso   1.00
H7218  H     1.03800   0.90852   0.50721   0.00000  Uiso   1.00
O7219  O     0.90101   0.96730   0.70456   0.00000  Uiso   1.00
C7220  C     1.00920   0.94694   0.65577   0.00000  Uiso   1.00
H7221  H     1.15996   0.94790   0.57087   0.00000  Uiso   1.00
H7222  H     0.93194   0.86788   0.69042   0.00000  Uiso   1.00
C7223  C     0.93188   0.95471   0.54707   0.00000  Uiso   1.00
C7224  C     1.16442   0.72957   0.69423   0.00000  Uiso   1.00
H7225  H     0.92608   0.81716   0.68617   0.00000  Uiso   1.00
H7226  H     0.92604   0.76280   0.54119   0.00000  Uiso   1.00
C7227  C     1.18031   0.84415   0.48853   0.00000  Uiso   1.00
H7228  H     0.90124   0.85728   0.67357   0.00000  Uiso   1.00
H7229  H     0.92578   0.77004   0.57650   0.00000  Uiso   1.00
H7230  H     1.21866   0.91757   0.67796   0.00000  Uiso   1.00
C7231  C     1.18240   0.75169   0.69795   0.00000  Uiso   1.00
H7232  H     1.09763   0.74027   0.54352   0.00000  Uiso   1.00
C7233  C     1.18483   0.72249   0.60055   0.00000  Uiso   1.00
C7234  C     1.00724   0.96260   0.68104   0.00000  Uiso   1.00
C7235  C     1.21164   0.75723   0.57796   0.00000  Uiso   1.00
C7236  C     0.94201   0.96049   0.57330   0.00000  Uiso   1.00
H7237  H     0.89164   0.80646   0.65380   0.00000  Uiso   1.00
C7238  C     0.90776   0.84369   0.71689   0.00000  Uiso   1.00
H7239  H     1.20899   0.83447   0.61546   0.00000  Uiso   1.00
C7240  C     0.91018   0.86450   0.69325   0.00000  Uiso   1.00
H7241  H     0.91025   0.76493   0.64157   0.00000  Uiso   1.00
O7242  O     1.20077   0.95573   0.64394   0.00000  Uiso   1.00
C7243  C     1.17396   0.72592   0.64652   0.00000  Uiso   1.00
H7244  H     0.92129   0.74959   0.49731   0.00000  Uiso   1.00
O7245  O     0.96113   0.96984   0.47775   0.00000  Uiso   1.00
H7246  H     1.19038   0.86796   0.70458   0.00000  Uiso   1.00
H7247  H     1.08825   0.96163   0.64646   0.00000  Uiso   1.00
C7248  C     0.92267   0.95370   0.71596   0.00000  Uiso   1.00
C7249  C     1.01500   0.92766   0.72161   0.00000  Uiso   1.00
H7250  H     1.21899   0.91342   0.59615   0.00000  Uiso   1.00
H7251  H     1.07770   0.73000   0.47911   0.00000  Uiso   1.00
H7252  H     0.89538   0.75846   0.56098   0.00000  Uiso   1.00
C7253  C     0.89078   0.79582   0.70075   0.00000  Uiso   1.00
H7254  H     0.92999   0.80550   0.71914   0.00000  Uiso   1.00
C7255  C     0.91075   0.97204   0.53627   0.00000  Uiso   1.00
H7256  H     1.05310   0.90516   0.47542   0.00000  Uiso   1.00
H7257  H     1.09256   0.94171   0.78234   0.00000  Uiso   1.00
H7258  H     0.98980   0.92928   0.78741   0.00000  Uiso   1.00
C7259  C     0.93502   0.90483   0.85398   0.00000  Uiso   1.00
H7260  H     0.90358   0.73480   0.81607   0.00000  Uiso   1.00
C7261  C     0.99354   0.88550   0.74539   0.00000  Uiso   1.00
H7262  H     1.13793   0.87836   0.80319   0.00000  Uiso   1.00
C7263  C     0.95222   0.79837   0.78292   0.00000  Uiso   1.00
H7264  H     1.02464   0.91875   0.78182   0.00000  Uiso   1.00
C7265  C     0.98828   0.86562   0.89993   0.00000  Uiso   1.00
C7266  C     0.92110   0.93759   0.73982   0.00000  Uiso   1.00
C7267  C     0.98028   0.83866   0.89255   0.00000  Uiso   1.00
H7268  H     1.16764   0.89817   0.81221   0.00000  Uiso   1.00
H7269  H     1.19791   0.77289   0.91848   0.00000  Uiso   1.00
H7270  H     1.09668   0.93234   0.81824   0.00000  Uiso   1.00
C7271  C     1.01774   0.81924   0.91456   0.00000  Uiso   1.00
N7272  N     1.01584   0.74785   0.90560   0.00000  Uiso   1.00
H7273  H     1.21031   0.92712   0.76680   0.00000  Uiso   1.00
H7274  H     1.13692   0.89782   0.75583   0.00000  Uiso   1.00
H7275  H     0.93999   0.88870   0.81287   0.00000  Uiso   1.00
C7276  C     1.00753   0.92897   0.77272   0.00000  Uiso   1.00
C7277  C     1.00537   0.79875   0.76175   0.00000  Uiso   1.00
C7278  C     0.97036   0.93095   0.73798   0.00000  Uiso   1.00
C7279  C     1.20161   0.90160   0.73135   0.00000  Uiso   1.00
H7280  H     0.94430   0.91493   0.77122   0.00000  Uiso   1.00
H7281  H     0.92636   0.74515   0.88051   0.00000  Uiso   1.00
C7282  C     0.97563   0.88916   0.88842   0.00000  Uiso   1.00
C7283  C     1.14905   0.94956   0.79690   0.00000  Uiso   1.00
C7284  C     1.05938   0.87155   0.94834   0.00000  Uiso   1.00
C7285  C     0.89805   0.75168   0.73167   0.00000  Uiso   1.00
H7286  H     0.89926   0.92815   0.85754   0.00000  Uiso   1.00
H7287  H     1.13614   0.89933   0.83020   0.00000  Uiso   1.00
H7288  H     1.13907   0.89217   0.93936   0.00000  Uiso   1.00
O7289  O     1.01065   0.86996   0.91719   0.00000  Uiso   1.00
C7290  C     1.06696   0.82443   0.94393   0.00000  Uiso   1.00
C7291  C     1.10884   0.94948   0.94436   0.00000  Uiso   1.00
C7292  C     0.95301   0.88466   0.87207   0.00000  Uiso   1.00
N7293  N     1.06556   0.83654   0.75843   0.00000  Uiso   1.00
C7294  C     0.94570   0.85758   0.86415   0.00000  Uiso   1.00
O7295  O     1.07370   0.77436   0.94172   0.00000  Uiso   1.00
H7296  H     0.89639   0.73719   0.86214   0.00000  Uiso   1.00
H7297  H     0.90066   0.89878   0.88042   0.00000  Uiso   1.00
C7298  C     0.99792   0.91700   0.74538   0.00000  Uiso   1.00
C7299  C     0.91112   0.94792   0.95699   0.00000  Uiso   1.00
C7300  C     1.10282   0.92694   0.79643   0.00000  Uiso   1.00
H7301  H     0.94505   0.85286   0.74288   0.00000  Uiso   1.00
C7302  C     0.94523   0.92621   0.75047   0.00000  Uiso   1.00
H7303  H     0.91034   0.78231   0.78643   0.00000  Uiso   1.00
H7304  H     1.12394   0.93014   0.74697   0.00000  Uiso   1.00
C7305  C     0.93539   0.83969   0.81763   0.00000  Uiso   1.00
C7306  C     0.98655   0.77689   0.75508   0.00000  Uiso   1.00
N7307  N     1.06834   0.89182   0.95682   0.00000  Uiso   1.00
C7308  C     1.08133   0.75020   0.72642   0.00000  Uiso   1.00
C7309  C     0.97018   0.81987   0.79027   0.00000  Uiso   1.00
C7310  C     1.03196   0.79907   0.75150   0.00000  Uiso   1.00
C7311  C     0.92450   0.88772   0.83105   0.00000  Uiso   1.00
C7312  C     0.92449   0.79932   0.79263   0.00000  Uiso   1.00
C7313  C     1.03449   0.79657   0.91978   0.00000  Uiso   1.00
H7314  H     1.09236   0.90854   0.79014   0.00000  Uiso   1.00
H7315  H     0.96760   0.91708   0.83027   0.00000  Uiso   1.00
H7316  H     1.18395   0.93422   0.91104   0.00000  Uiso   1.00
C7317  C     1.05934   0.79823   0.93360   0.00000  Uiso   1.00
O7318  O     0.99694   0.82099   0.77982   0.00000  Uiso   1.00
H7319  H     1.14048   0.95875   0.83948   0.00000  Uiso   1.00
C7320  C     1.16946   0.73491   0.74297   0.00000  Uiso   1.00
H7321  H     1.10755   0.94663   0.92151   0.00000  Uiso   1.00
H7322  H     1.15690   0.74300   0.76037   0.00000  Uiso   1.00
C7323  C     1.02567   0.84590   0.92306   0.00000  Uiso   1.00
C7324  C     1.13382   0.92274   0.79153   0.00000  Uiso   1.00
H7325  H     0.97169   0.72800   0.86591   0.00000  Uiso   1.00
C7326  C     1.14518   0.89875   0.80998   0.00000  Uiso   1.00
O7327  O     1.09143   0.82709   0.95760   0.00000  Uiso   1.00
H7328  H     0.91578   0.92898   0.88900   0.00000  Uiso   1.00
C7329  C     1.10970   0.80387   0.95956   0.00000  Uiso   1.00
C7330  C     0.95778   0.83435   0.87518   0.00000  Uiso   1.00
C7331  C     1.15926   0.93209   0.94832   0.00000  Uiso   1.00
C7332  C     0.91580   0.72846   0.86939   0.00000  Uiso   1.00
H7333  H     0.91043   0.76125   0.74775   0.00000  Uiso   1.00
C7334  C     1.02461   0.76889   0.91194   0.00000  Uiso   1.00
C7335  C     0.95204   0.92740   0.84151   0.00000  Uiso   1.00
O7336  O     1.03534   0.72698   0.72536   0.00000  Uiso   1.00
H7337  H     0.91171   0.94844   0.93512   0.00000  Uiso   1.00
H7338  H     0.89136   0.78770   0.84294   0.00000  Uiso   1.00
C7339  C     0.92524   0.85772   0.84038   0.00000  Uiso   1.00
H7340  H     1.03577   0.95847   0.85202   0.00000  Uiso   1.00
H7341  H     0.97816   0.87631   0.75994   0.00000  Uiso   1.00
O7342  O     0.99363   0.81581   0.89928   0.00000  Uiso   1.00
C7343  C     1.04110   0.77529   0.73781   0.00000  Uiso   1.00
H7344  H     1.14799   0.82550   0.97065   0.00000  Uiso   1.00
H7345  H     0.98353   0.90978   0.89212   0.00000  Uiso   1.00
C7346  C     0.91590   0.82051   0.80980   0.00000  Uiso   1.00
C7347  C     1.16783   0.93217   0.75346   0.00000  Uiso   1.00
H7348  H     1.16212   0.88039   0.72552   0.00000  Uiso   1.00
C7349  C     1.13969   0.91923   0.75984   0.00000  Uiso   1.00
C7350  C     1.06528   0.72624   0.72601   0.00000  Uiso   1.00
H7351  H     0.95164   0.81252   0.86949   0.00000  Uiso   1.00
H7352  H     1.18106   0.79003   0.75734   0.00000  Uiso   1.00
C7353  C     1.21233   0.78225   0.93366   0.00000  Uiso   1.00
O7354  O     0.95864   0.77755   0.76517   0.00000  Uiso   1.00
O7355  O     0.89596   0.93360   0.75397   0.00000  Uiso   1.00
H7356  H     0.97848   0.85241   0.81920   0.00000  Uiso   1.00
O7357  O     1.05921   0.95587   0.94399   0.00000  Uiso   1.00
C7358  C     1.00918   0.96051   0.95040   0.00000  Uiso   1.00
C7359  C     1.04989   0.84663   0.93834   0.00000  Uiso   1.00
H7360  H     1.19050   0.86071   0.74118   0.00000  Uiso   1.00
H7361  H     1.17335   0.88939   0.94195   0.00000  Uiso   1.00
H7362  H     0.92971   0.75861   0.82454   0.00000  Uiso   1.00
C7363  C     1.11665   0.75612   0.95393   0.00000  Uiso   1.00
C7364  C     1.16484   0.94233   0.91889   0.00000  Uiso   1.00
C7365  C     0.91237   0.91595   0.87097   0.00000  Uiso   1.00
C7366  C     1.02468   0.75251   0.73326   0.00000  Uiso   1.00
C7367  C     0.99697   0.75546   0.73895   0.00000  Uiso   1.00
H7368  H     0.91592   0.84354   0.76314   0.00000  Uiso   1.00
C7369  C     0.96321   0.83763   0.81057   0.00000  Uiso   1.00
N7370  N     1.00428   0.94802   0.89937   0.00000  Uiso   1.00
H7371  H     0.94058   0.93989   0.82581   0.00000  Uiso   1.00
C7372  C     1.04224   0.97130   0.83508   0.00000  Uiso   1.00
H7373  H     0.95948   0.94116   0.85858   0.00000  Uiso   1.00
C7374  C     1.09991   0.77823   0.95098   0.00000  Uiso   1.00
H7375  H     1.10835   0.73562   0.94979   0.00000  Uiso   1.00
C7376  C     1.19324   0.91404   0.75887   0.00000  Uiso   1.00
C7377  C     1.04935   0.81986   0.75495   0.00000  Uiso   1.00
C7378  C     1.18491   0.87510   0.72510   0.00000  Uiso   1.00
C7379  C     0.89755   0.84439   0.84871   0.00000  Uiso   1.00
O7380  O     0.96010   0.95909   0.95188   0.00000  Uiso   1.00
H7381  H     0.91670   0.87584   0.74869   0.00000  Uiso   1.00
H7382  H     0.90351   0.83016   0.86509   0.00000  Uiso   1.00
C7383  C     1.12322   0.72398   0.72397   0.00000  Uiso   1.00
H7384  H     1.19319   0.89887   0.77497   0.00000  Uiso   1.00
C7385  C     1.00667   0.95325   0.92228   0.00000  Uiso   1.00
C7386  C     1.18544   0.75769   0.72828   0.00000  Uiso   1.00
C7387  C     1.11023   0.74924   0.72550   0.00000  Uiso   1.00
H7388  H     1.01366   0.94946   0.77037   0.00000  Uiso   1.00
H7389  H     1.21932   0.75783   0.75824   0.00000  Uiso   1.00
C7390  C     0.92170   0.85396   0.74375   0.00000  Uiso   1.00
H7391  H     1.05782   0.96088   0.82214   0.00000  Uiso   1.00
H7392  H     1.18808   0.80124   0.72405   0.00000  Uiso   1.00
C7393  C     1.17512   0.78733   0.73546   0.00000  Uiso   1.00
C7394  C     0.98512   0.96194   0.96604   0.00000  Uiso   1.00
H7395  H     1.15444   0.79315   0.73227   0.00000  Uiso   1.00
C7396  C     1.13762   0.80595   0.96710   0.00000  Uiso   1.00
C7397  C     1.15597   0.89970   0.95171   0.00000  Uiso   1.00
C7398  C     0.97872   0.73501   0.72916   0.00000  Uiso   1.00
C7399  C     1.16521   0.95527   0.77434   0.00000  Uiso   1.00
O7400  O     1.06962   0.77505   0.72951   0.00000  Uiso   1.00
C7401  C     0.89584   0.72326   0.73555   0.00000  Uiso   1.00
C7402  C     1.03610   0.95950   0.96154   0.00000  Uiso   1.00
C7403  C     1.17019   0.93926   0.72269   0.00000  Uiso   1.00
C7404  C     1.08435   0.95656   0.95775   0.00000  Uiso   1.00
C7405  C     1.20501   0.79013   0.96081   0.00000  Uiso   1.00
H7406  H     1.01348   0.87484   0.75021   0.00000  Uiso   1.00
C7407  C     0.93709   0.95781   0.96895   0.00000  Uiso   1.00
C7408  C     1.13320   0.94539   0.95813   0.00000  Uiso   1.00
H7409  H     1.19107   0.95959   0.96155   0.00000  Uiso   1.00
C7410  C     1.14322   0.75671   0.96616   0.00000  Uiso   1.00
H7411  H     1.14682   0.93424   0.90643   0.00000  Uiso   1.00
H7412  H     1.16758   0.96504   0.92081   0.00000  Uiso   1.00
C7413  C     0.92614   0.73646   0.82052   0.00000  Uiso   1.00
C7414  C     1.21621   0.75625   0.73680   0.00000  Uiso   1.00
H7415  H     1.18949   0.72865   0.93681   0.00000  Uiso   1.00
H7416  H     0.90476   0.89460   0.82318   0.00000  Uiso   1.00
H7417  H     0.93568   0.73150   0.80081   0.00000  Uiso   1.00
H7418  H     1.03876   0.93013   0.72858   0.00000  Uiso   1.00
C7419  C     1.18027   0.94140   0.96956   0.00000  Uiso   1.00
C7420  C     1.14903   0.96663   0.81996   0.00000  Uiso   1.00
H7421  H     0.98658   0.87936   0.72480   0.00000  Uiso   1.00
H7422  H     1.12091   0.76855   0.72595   0.00000  Uiso   1.00
H7423  H     1.19588   0.92382   0.97053   0.00000  Uiso   1.00
C7424  C     1.15343   0.78206   0.97160   0.00000  Uiso   1.00
C7425  C     0.92659   0.91368   1.19877   0.00000  Uiso   1.00
C7426  C     1.19205   0.92877   1.06548   0.00000  Uiso   1.00
H7427  H     1.18642   0.90787   1.06469   0.00000  Uiso   1.00
O7428  O     0.96488   0.96968   1.00983   0.00000  Uiso   1.00
C7429  C     0.89442   0.94128   1.00304   0.00000  Uiso   1.00
H7430  H     1.17500   0.85664   1.06943   0.00000  Uiso   1.00
C7431  C     0.89420   0.89381   1.16946   0.00000  Uiso   1.00
H7432  H     0.90779   0.75018   1.06811   0.00000  Uiso   1.00
O7433  O     1.03968   0.73251   1.02694   0.00000  Uiso   1.00
H7434  H     0.99945   0.85540   1.07039   0.00000  Uiso   1.00
C7435  C     1.03895   0.85456   1.18771   0.00000  Uiso   1.00
H7436  H     0.99329   0.82160   1.05470   0.00000  Uiso   1.00
H7437  H     1.01627   0.78386   1.03656   0.00000  Uiso   1.00
C7438  C     1.13518   0.95103   0.98580   0.00000  Uiso   1.00
C7439  C     1.16838   0.93061   1.02115   0.00000  Uiso   1.00
H7440  H     1.09743   0.85382   1.03638   0.00000  Uiso   1.00
N7441  N     0.94536   0.83952   1.10324   0.00000  Uiso   1.00
H7442  H     0.99012   0.90465   1.16948   0.00000  Uiso   1.00
C7443  C     1.10592   0.84062   1.05263   0.00000  Uiso   1.00
H7444  H     1.02325   0.82942   1.01522   0.00000  Uiso   1.00
O7445  O     1.15663   0.84410   1.16347   0.00000  Uiso   1.00
C7446  C     1.03652   0.77845   1.04621   0.00000  Uiso   1.00
C7447  C     1.15596   0.82302   1.18330   0.00000  Uiso   1.00
C7448  C     0.98827   0.96818   0.99396   0.00000  Uiso   1.00
C7449  C     1.12474   0.88552   1.06225   0.00000  Uiso   1.00
H7450  H     1.20732   0.74139   0.98098   0.00000  Uiso   1.00
C7451  C     1.01079   0.82963   1.22008   0.00000  Uiso   1.00
H7452  H     1.07396   0.81432   1.13270   0.00000  Uiso   1.00
H7453  H     0.93747   0.74381   1.10832   0.00000  Uiso   1.00
C7454  C     1.12955   0.85408   1.06646   0.00000  Uiso   1.00
H7455  H     0.97905   0.73905   1.12095   0.00000  Uiso   1.00
C7456  C     1.10907   0.95298   1.11316   0.00000  Uiso   1.00
O7457  O     1.06358   0.86965   1.18504   0.00000  Uiso   1.00
H7458  H     1.22097   0.92669   1.00179   0.00000  Uiso   1.00
H7459  H     1.16598   0.90894   1.01477   0.00000  Uiso   1.00
C7460  C     1.11285   0.82498   1.14929   0.00000  Uiso   1.00
C7461  C     1.03518   0.84098   1.21251   0.00000  Uiso   1.00
H7462  H     1.13899   0.89682   1.07526   0.00000  Uiso   1.00
H7463  H     1.05839   0.84472   1.01643   0.00000  Uiso   1.00
C7464  C     0.91859   0.95218   1.01409   0.00000  Uiso   1.00
H7465  H     0.97917   0.77214   1.19957   0.00000  Uiso   1.00
H7466  H     1.15702   0.89291   0.97289   0.00000  Uiso   1.00
C7467  C     1.08818   0.95314   1.09210   0.00000  Uiso   1.00
O7468  O     1.01745   0.86744   1.14359   0.00000  Uiso   1.00
C7469  C     1.13214   0.80945   1.18967   0.00000  Uiso   1.00
C7470  C     1.00942   0.94443   1.20943   0.00000  Uiso   1.00
H7471  H     1.10389   0.89148   1.06533   0.00000  Uiso   1.00
C7472  C     0.98978   0.82848   1.20141   0.00000  Uiso   1.00
C7473  C     0.98178   0.92858   1.20542   0.00000  Uiso   1.00
C7474  C     0.93467   0.93177   1.21999   0.00000  Uiso   1.00
O7475  O     1.11310   0.92908   1.12803   0.00000  Uiso   1.00
H7476  H     0.92861   0.83396   1.19070   0.00000  Uiso   1.00
H7477  H     0.95391   0.78958   1.17791   0.00000  Uiso   1.00
C7478  C     1.01723   0.85360   1.16820   0.00000  Uiso   1.00
H7479  H     0.97702   0.83622   1.16063   0.00000  Uiso   1.00
C7480  C     1.10799   0.90009   1.17167   0.00000  Uiso   1.00
C7481  C     1.04162   0.88313   1.13987   0.00000  Uiso   1.00
H7482  H     0.92256   0.76153   1.13924   0.00000  Uiso   1.00
C7483  C     1.02095   0.90141   1.09862   0.00000  Uiso   1.00
C7484  C     0.90860   0.86758   1.12854   0.00000  Uiso   1.00
H7485  H     1.10618   0.77475   1.08149   0.00000  Uiso   1.00
H7486  H     1.11409   0.82327   1.04148   0.00000  Uiso   1.00
H7487  H     1.01850   0.77346   1.20296   0.00000  Uiso   1.00
C7488  C     1.21965   0.92610   1.02419   0.00000  Uiso   1.00
H7489  H     1.12749   0.89260   1.04054   0.00000  Uiso   1.00
H7490  H     1.02755   0.86071   1.02931   0.00000  Uiso   1.00
H7491  H     1.02579   0.93156   1.17069   0.00000  Uiso   1.00
C7492  C     0.97486   0.91068   1.18473   0.00000  Uiso   1.00
C7493  C     1.12513   0.84696   1.09677   0.00000  Uiso   1.00
C7494  C     1.21821   0.80582   1.00654   0.00000  Uiso   1.00
C7495  C     1.18366   0.77985   0.98095   0.00000  Uiso   1.00
C7496  C     1.02487   0.95104   1.18135   0.00000  Uiso   1.00
C7497  C     1.05826   0.84487   1.07780   0.00000  Uiso   1.00
C7498  C     1.17917   0.81694   1.19869   0.00000  Uiso   1.00
C7499  C     1.19354   0.93930   1.03636   0.00000  Uiso   1.00
H7500  H     1.04947   0.84388   1.09787   0.00000  Uiso   1.00
C7501  C     0.92931   0.85251   1.11400   0.00000  Uiso   1.00
C7502  C     1.03798   0.83120   1.05733   0.00000  Uiso   1.00
C7503  C     1.18034   0.79501   1.21731   0.00000  Uiso   1.00
C7504  C     1.09436   0.82281   1.12779   0.00000  Uiso   1.00
C7505  C     1.19378   0.96950   1.03197   0.00000  Uiso   1.00
H7506  H     1.06254   0.86628   1.07133   0.00000  Uiso   1.00
H7507  H     1.17770   0.94016   1.07894   0.00000  Uiso   1.00
C7508  C     1.08575   0.82925   1.07460   0.00000  Uiso   1.00
H7509  H     1.00634   0.82416   1.08795   0.00000  Uiso   1.00
C7510  C     1.00768   0.83373   1.06701   0.00000  Uiso   1.00
H7511  H     0.92104   0.95178   1.03633   0.00000  Uiso   1.00
O7512  O     0.89910   0.90667   1.19399   0.00000  Uiso   1.00
C7513  C     1.11183   0.95745   1.00038   0.00000  Uiso   1.00
C7514  C     1.08733   0.77589   1.06957   0.00000  Uiso   1.00
H7515  H     1.21099   0.93180   1.07427   0.00000  Uiso   1.00
C7516  C     1.07563   0.75185   1.05823   0.00000  Uiso   1.00
H7517  H     1.21235   0.72526   1.05175   0.00000  Uiso   1.00
C7518  C     1.08898   0.91405   1.13006   0.00000  Uiso   1.00
O7519  O     0.94197   0.88524   1.15922   0.00000  Uiso   1.00
O7520  O     1.04498   0.72753   1.20584   0.00000  Uiso   1.00
C7521  C     1.10091   0.83162   1.10145   0.00000  Uiso   1.00
C7522  C     1.04854   0.80214   1.05714   0.00000  Uiso   1.00
H7523  H     0.94297   0.77484   1.20933   0.00000  Uiso   1.00
C7524  C     1.13204   0.78794   1.21026   0.00000  Uiso   1.00
O7525  O     1.06926   0.93278   1.08933   0.00000  Uiso   1.00
C7526  C     1.04984   0.75312   1.04404   0.00000  Uiso   1.00
C7527  C     1.03865   0.84127   1.02766   0.00000  Uiso   1.00
C7528  C     1.14239   0.85310   1.11874   0.00000  Uiso   1.00
C7529  C     1.07546   0.80150   1.06674   0.00000  Uiso   1.00
H7530  H     1.17750   0.81773   1.00363   0.00000  Uiso   1.00
C7531  C     1.13717   0.84131   1.14387   0.00000  Uiso   1.00
N7532  N     1.00316   0.90086   1.08246   0.00000  Uiso   1.00
C7533  C     1.15924   0.84690   1.05710   0.00000  Uiso   1.00
H7534  H     1.15028   0.93563   1.03510   0.00000  Uiso   1.00
N7535  N     1.12582   0.90096   1.18740   0.00000  Uiso   1.00
C7536  C     0.89287   0.74608   1.11072   0.00000  Uiso   1.00
H7537  H     1.18051   0.78712   1.02634   0.00000  Uiso   1.00
C7538  C     1.06455   0.88194   1.15817   0.00000  Uiso   1.00
C7539  C     0.92228   0.74327   1.12503   0.00000  Uiso   1.00
H7540  H     0.89327   0.78746   1.09373   0.00000  Uiso   1.00
O7541  O     1.06426   0.96470   1.00243   0.00000  Uiso   1.00
O7542  O     1.10701   0.81349   1.17493   0.00000  Uiso   1.00
H7543  H     1.16256   0.82549   1.06204   0.00000  Uiso   1.00
C7544  C     1.08734   0.89862   1.15352   0.00000  Uiso   1.00
H7545  H     1.16193   0.84856   1.03446   0.00000  Uiso   1.00
C7546  C     1.04217   0.90134   1.11715   0.00000  Uiso   1.00
C7547  C     0.94755   0.90299   1.18081   0.00000  Uiso   1.00
H7548  H     1.16283   0.86379   1.11695   0.00000  Uiso   1.00
H7549  H     1.21607   0.83792   1.03906   0.00000  Uiso   1.00
C7550  C     1.03810   0.96336   0.99028   0.00000  Uiso   1.00
C7551  C     0.99369   0.83846   1.17560   0.00000  Uiso   1.00
N7552  N     0.91717   0.72538   0.99931   0.00000  Uiso   1.00
H7553  H     1.18713   0.74628   1.00907   0.00000  Uiso   1.00
C7554  C     0.91499   0.88189   1.15251   0.00000  Uiso   1.00
C7555  C     1.18745   0.79779   1.00671   0.00000  Uiso   1.00
C7556  C     1.06573   0.91622   1.11196   0.00000  Uiso   1.00
H7557  H     1.13606   0.72460   1.01121   0.00000  Uiso   1.00
C7558  C     1.08677   0.95865   0.98655   0.00000  Uiso   1.00
C7559  C     0.96019   0.78586   1.19989   0.00000  Uiso   1.00
O7560  O     1.09076   0.72850   1.05961   0.00000  Uiso   1.00
C7561  C     1.10959   0.77217   1.21512   0.00000  Uiso   1.00
C7562  C     1.20385   0.83131   1.19080   0.00000  Uiso   1.00
C7563  C     0.93787   0.83136   1.21153   0.00000  Uiso   1.00
H7564  H     0.91459   0.73005   1.19626   0.00000  Uiso   1.00
C7565  C     1.18760   0.74899   0.98687   0.00000  Uiso   1.00
C7566  C     1.16578   0.95022   0.99643   0.00000  Uiso   1.00
H7567  H     1.04494   0.96227   1.18478   0.00000  Uiso   1.00
C7568  C     0.89119   0.93908   0.97409   0.00000  Uiso   1.00
C7569  C     0.96422   0.81339   1.21367   0.00000  Uiso   1.00
C7570  C     0.93968   0.96146   0.99774   0.00000  Uiso   1.00
H7571  H     1.11346   0.96187   1.02245   0.00000  Uiso   1.00
H7572  H     1.21759   0.85077   1.00425   0.00000  Uiso   1.00
N7573  N     1.09055   0.75948   1.22036   0.00000  Uiso   1.00
H7574  H     1.03420   0.90412   1.21226   0.00000  Uiso   1.00
H7575  H     0.88969   0.88641   1.02290   0.00000  Uiso   1.00
C7576  C     0.89627   0.73553   1.07999   0.00000  Uiso   1.00
H7577  H     0.89911   0.91321   1.04995   0.00000  Uiso   1.00
H7578  H     1.01298   0.96555   1.16829   0.00000  Uiso   1.00
N7579  N     1.22175   0.77147   1.10604   0.00000  Uiso   1.00
C7580  C     1.01439   0.96883   1.00518   0.00000  Uiso   1.00
C7581  C     1.16340   0.73407   0.97370   0.00000  Uiso   1.00
H7582  H     0.92124   0.81846   1.21901   0.00000  Uiso   1.00
H7583  H     0.93703   0.85278   1.22116   0.00000  Uiso   1.00
C7584  C     1.19061   1.03294   0.45167   0.00000  Uiso   1.00
H7585  H     1.16237   1.12834   0.24501   0.00000  Uiso   1.00
C7586  C     1.11442   0.97570   0.45614   0.00000  Uiso   1.00
C7587  C     1.06466   1.12588   0.43781   0.00000  Uiso   1.00
H7588  H     1.17902   1.04137   0.46809   0.00000  Uiso   1.00
H7589  H     0.96787   1.14220   0.45400   0.00000  Uiso   1.00
H7590  H     0.91078   1.14098   0.25220   0.00000  Uiso   1.00
C7591  C     1.04382   1.12448   0.25846   0.00000  Uiso   1.00
H7592  H     1.01747   0.97578   0.24139   0.00000  Uiso   1.00
N7593  N     1.15830   1.21954   0.30414   0.00000  Uiso   1.00
H7594  H     0.89959   1.19233   0.31920   0.00000  Uiso   1.00
N7595  N     1.07954   1.05031   0.28854   0.00000  Uiso   1.00
H7596  H     0.90359   1.20844   0.28625   0.00000  Uiso   1.00
H7597  H     1.00306   1.15270   0.39723   0.00000  Uiso   1.00
C7598  C     1.22111   1.13630   0.34685   0.00000  Uiso   1.00
C7599  C     0.95440   1.09898   0.30658   0.00000  Uiso   1.00
H7600  H     1.16130   1.06999   0.41197   0.00000  Uiso   1.00
C7601  C     1.14747   1.19028   0.46727   0.00000  Uiso   1.00
N7602  N     1.21565   1.11815   0.40588   0.00000  Uiso   1.00
H7603  H     0.91967   1.15155   0.32797   0.00000  Uiso   1.00
C7604  C     0.94699   1.09943   0.35759   0.00000  Uiso   1.00
C7605  C     1.13485   0.98396   0.43366   0.00000  Uiso   1.00
H7606  H     0.93152   1.15709   0.27540   0.00000  Uiso   1.00
C7607  C     1.00260   1.14831   0.37472   0.00000  Uiso   1.00
H7608  H     1.20980   0.99639   0.41271   0.00000  Uiso   1.00
C7609  C     0.89462   1.21070   0.30733   0.00000  Uiso   1.00
O7610  O     0.97317   1.06043   0.23268   0.00000  Uiso   1.00
C7611  C     0.92381   0.99790   0.28676   0.00000  Uiso   1.00
H7612  H     1.05983   1.19478   0.42309   0.00000  Uiso   1.00
H7613  H     0.99249   1.08406   0.32229   0.00000  Uiso   1.00
C7614  C     0.89909   1.08245   0.45625   0.00000  Uiso   1.00
H7615  H     1.09498   1.20434   0.36164   0.00000  Uiso   1.00
C7616  C     1.06478   1.04645   0.27051   0.00000  Uiso   1.00
C7617  C     0.97289   1.13954   0.36783   0.00000  Uiso   1.00
H7618  H     1.06137   1.18631   0.36244   0.00000  Uiso   1.00
H7619  H     0.96509   1.15684   0.32761   0.00000  Uiso   1.00
C7620  C     1.12080   1.16395   0.43469   0.00000  Uiso   1.00
C7621  C     0.95141   1.03131   0.43270   0.00000  Uiso   1.00
H7622  H     0.93027   1.21269   0.23140   0.00000  Uiso   1.00
H7623  H     0.91710   1.21462   0.35733   0.00000  Uiso   1.00
C7624  C     0.93875   1.00173   0.23182   0.00000  Uiso   1.00
C7625  C     1.14599   1.17437   0.44319   0.00000  Uiso   1.00
C7626  C     0.94325   0.98009   0.27692   0.00000  Uiso   1.00
H7627  H     0.98467   1.10508   0.41647   0.00000  Uiso   1.00
C7628  C     0.98313   1.07015   0.28040   0.00000  Uiso   1.00
H7629  H     1.19847   1.07802   0.37807   0.00000  Uiso   1.00
C7630  C     0.96275   1.11207   0.37796   0.00000  Uiso   1.00
H7631  H     0.90089   1.12161   0.33540   0.00000  Uiso   1.00
C7632  C     0.97067   1.09703   0.40024   0.00000  Uiso   1.00
H7633  H     1.10422   1.17363   0.26948   0.00000  Uiso   1.00
H7634  H     1.02487   1.11120   0.25420   0.00000  Uiso   1.00
O7635  O     0.90368   1.03434   0.22388   0.00000  Uiso   1.00
H7636  H     1.19612   1.06285   0.30161   0.00000  Uiso   1.00
O7637  O     1.00889   1.05705   0.27910   0.00000  Uiso   1.00
C7638  C     0.95293   1.16072   0.38064   0.00000  Uiso   1.00
H7639  H     0.95873   1.18203   0.37488   0.00000  Uiso   1.00
H7640  H     0.93121   1.15798   0.37340   0.00000  Uiso   1.00
H7641  H     1.21180   1.07233   0.23747   0.00000  Uiso   1.00
C7642  C     0.95809   1.07169   0.40484   0.00000  Uiso   1.00
H7643  H     0.91727   0.99707   0.30926   0.00000  Uiso   1.00
O7644  O     0.96288   1.05809   0.42976   0.00000  Uiso   1.00
C7645  C     1.19034   1.00751   0.40608   0.00000  Uiso   1.00
C7646  C     1.01818   1.04909   0.25326   0.00000  Uiso   1.00
N7647  N     1.14824   1.14856   0.35567   0.00000  Uiso   1.00
C7648  C     0.99990   1.05210   0.23006   0.00000  Uiso   1.00
C7649  C     0.93367   1.07470   0.36173   0.00000  Uiso   1.00
H7650  H     1.12939   1.13315   0.25742   0.00000  Uiso   1.00
C7651  C     0.95848   1.01531   0.45491   0.00000  Uiso   1.00
C7652  C     0.93852   1.06023   0.38622   0.00000  Uiso   1.00
C7653  C     0.93742   0.97425   0.43262   0.00000  Uiso   1.00
H7654  H     1.03483   1.17179   0.41797   0.00000  Uiso   1.00
C7655  C     1.04524   1.04256   0.24853   0.00000  Uiso   1.00
H7656  H     1.17712   1.08777   0.35107   0.00000  Uiso   1.00
H7657  H     1.04334   1.19819   0.30223   0.00000  Uiso   1.00
H7658  H     1.17860   0.99440   0.39167   0.00000  Uiso   1.00
H7659  H     0.91897   1.06636   0.34678   0.00000  Uiso   1.00
C7660  C     0.93819   1.10363   0.28410   0.00000  Uiso   1.00
H7661  H     1.15530   1.15888   0.26633   0.00000  Uiso   1.00
C7662  C     0.96854   1.13800   0.33783   0.00000  Uiso   1.00
C7663  C     1.13007   1.13376   0.35290   0.00000  Uiso   1.00
C7664  C     1.19530   1.17328   0.44076   0.00000  Uiso   1.00
H7665  H     1.12227   1.15187   0.41565   0.00000  Uiso   1.00
C7666  C     0.92202   1.09930   0.45825   0.00000  Uiso   1.00
H7667  H     0.95188   1.15675   0.40385   0.00000  Uiso   1.00
H7668  H     0.89316   1.21602   0.22651   0.00000  Uiso   1.00
C7669  C     1.10636   1.11653   0.34858   0.00000  Uiso   1.00
C7670  C     1.16387   0.98753   0.44651   0.00000  Uiso   1.00
C7671  C     0.97740   1.08239   0.30543   0.00000  Uiso   1.00
C7672  C     1.14563   1.05569   0.41002   0.00000  Uiso   1.00
H7673  H     1.18524   1.09739   0.30683   0.00000  Uiso   1.00
H7674  H     1.00681   1.16760   0.36319   0.00000  Uiso   1.00
C7675  C     1.09958   1.04470   0.39374   0.00000  Uiso   1.00
C7676  C     1.14957   1.02821   0.41952   0.00000  Uiso   1.00
C7677  C     0.91247   1.14802   0.27398   0.00000  Uiso   1.00
C7678  C     1.05430   1.13864   0.23573   0.00000  Uiso   1.00
C7679  C     1.12693   1.01070   0.41865   0.00000  Uiso   1.00
C7680  C     1.10117   1.01967   0.40858   0.00000  Uiso   1.00
C7681  C     1.12132   1.06435   0.39757   0.00000  Uiso   1.00
C7682  C     1.07810   1.15418   0.23885   0.00000  Uiso   1.00
O7683  O     1.07726   1.05056   0.37847   0.00000  Uiso   1.00
C7684  C     1.07952   1.07558   0.36331   0.00000  Uiso   1.00
C7685  C     1.03952   1.06253   0.34013   0.00000  Uiso   1.00
C7686  C     0.91347   1.12179   0.29253   0.00000  Uiso   1.00
O7687  O     1.12236   1.08974   0.38686   0.00000  Uiso   1.00
H7688  H     0.98141   0.98385   0.31875   0.00000  Uiso   1.00
N7689  N     1.02280   1.04689   0.33714   0.00000  Uiso   1.00
C7690  C     1.06050   1.08108   0.34265   0.00000  Uiso   1.00
C7691  C     1.10189   1.09409   0.36710   0.00000  Uiso   1.00
H7692  H     1.08478   1.00398   0.40571   0.00000  Uiso   1.00
C7693  C     0.94438   1.09166   0.25828   0.00000  Uiso   1.00
H7694  H     0.93249   1.10782   0.43844   0.00000  Uiso   1.00
C7695  C     1.22000   1.16254   0.43158   0.00000  Uiso   1.00
C7696  C     1.06460   1.10361   0.32431   0.00000  Uiso   1.00
C7697  C     1.21742   1.08418   0.33496   0.00000  Uiso   1.00
C7698  C     1.21794   1.13771   0.41784   0.00000  Uiso   1.00
C7699  C     1.07625   1.19802   0.35011   0.00000  Uiso   1.00
O7700  O     0.92377   1.03623   0.39084   0.00000  Uiso   1.00
H7701  H     1.20561   1.13842   0.25604   0.00000  Uiso   1.00
C7702  C     1.19530   1.07563   0.35591   0.00000  Uiso   1.00
H7703  H     1.08167   1.18349   0.33478   0.00000  Uiso   1.00
H7704  H     1.19909   1.02573   0.39463   0.00000  Uiso   1.00
C7705  C     0.93492   1.02053   0.41066   0.00000  Uiso   1.00
H7706  H     1.07284   1.12046   0.41767   0.00000  Uiso   1.00
O7707  O     1.04519   1.10717   0.30399   0.00000  Uiso   1.00
C7708  C     1.19620   1.19082   0.46418   0.00000  Uiso   1.00
C7709  C     1.06767   1.15586   0.44490   0.00000  Uiso   1.00
H7710  H     0.93270   1.09442   0.23904   0.00000  Uiso   1.00
H7711  H     0.89439   1.16087   0.27799   0.00000  Uiso   1.00
O7712  O     1.21325   1.18835   0.26916   0.00000  Uiso   1.00
C7713  C     0.91005   1.01572   0.27000   0.00000  Uiso   1.00
C7714  C     1.05707   1.17316   0.42047   0.00000  Uiso   1.00
C7715  C     1.07758   1.14334   0.28790   0.00000  Uiso   1.00
C7716  C     1.08656   1.12188   0.32840   0.00000  Uiso   1.00
O7717  O     1.17009   1.16480   0.42999   0.00000  Uiso   1.00
H7718  H     1.19851   1.13989   0.34368   0.00000  Uiso   1.00
C7719  C     1.14734   1.14465   0.25067   0.00000  Uiso   1.00
C7720  C     1.08822   1.15814   0.26511   0.00000  Uiso   1.00
C7721  C     0.94687   1.11644   0.33266   0.00000  Uiso   1.00
H7722  H     1.21580   1.09255   0.28908   0.00000  Uiso   1.00
H7723  H     0.98776   1.13222   0.32819   0.00000  Uiso   1.00
C7724  C     1.09765   1.16555   0.45056   0.00000  Uiso   1.00
C7725  C     0.91872   1.12920   0.32299   0.00000  Uiso   1.00
C7726  C     1.17410   1.01384   0.43123   0.00000  Uiso   1.00
C7727  C     0.91820   1.01798   0.24202   0.00000  Uiso   1.00
C7728  C     1.05399   1.12564   0.28394   0.00000  Uiso   1.00
C7729  C     0.92933   0.99180   0.41130   0.00000  Uiso   1.00
H7730  H     1.01876   1.13370   0.36919   0.00000  Uiso   1.00
C7731  C     0.96708   1.07374   0.25758   0.00000  Uiso   1.00
C7732  C     1.20401   1.08415   0.30666   0.00000  Uiso   1.00
H7733  H     1.04111   1.12427   0.43248   0.00000  Uiso   1.00
H7734  H     1.18775   1.05538   0.35083   0.00000  Uiso   1.00
O7735  O     1.09107   1.14480   0.31208   0.00000  Uiso   1.00
H7736  H     1.06518   1.16745   0.40116   0.00000  Uiso   1.00
H7737  H     1.20079   1.05112   0.44136   0.00000  Uiso   1.00
C7738  C     0.95168   0.98666   0.45575   0.00000  Uiso   1.00
H7739  H     1.06767   1.11180   0.45415   0.00000  Uiso   1.00
H7740  H     1.16771   1.20952   0.24090   0.00000  Uiso   1.00
H7741  H     1.02568   1.20462   0.33445   0.00000  Uiso   1.00
C7742  C     0.91668   0.97943   0.38873   0.00000  Uiso   1.00
C7743  C     1.03917   1.21266   0.31795   0.00000  Uiso   1.00
H7744  H     1.20740   1.01966   0.46002   0.00000  Uiso   1.00
C7745  C     1.14737   1.21147   0.23252   0.00000  Uiso   1.00
C7746  C     0.95118   0.98211   0.24867   0.00000  Uiso   1.00
C7747  C     1.22060   1.21786   0.27141   0.00000  Uiso   1.00
H7748  H     1.04031   1.18494   0.46499   0.00000  Uiso   1.00
H7749  H     1.16057   0.99423   0.46780   0.00000  Uiso   1.00
C7750  C     1.05290   1.16558   0.47179   0.00000  Uiso   1.00
C7751  C     1.22191   1.14742   0.24389   0.00000  Uiso   1.00
C7752  C     1.13232   1.18933   0.22495   0.00000  Uiso   1.00
C7753  C     1.00947   1.00487   0.70706   0.00000  Uiso   1.00
H7754  H     1.17000   1.21563   0.60940   0.00000  Uiso   1.00
H7755  H     1.15296   1.10729   0.51109   0.00000  Uiso   1.00
C7756  C     0.90235   1.12339   0.57733   0.00000  Uiso   1.00
H7757  H     1.04971   1.14147   0.57586   0.00000  Uiso   1.00
C7758  C     1.02114   0.98719   0.62929   0.00000  Uiso   1.00
H7759  H     1.16132   1.14240   0.61008   0.00000  Uiso   1.00
N7760  N     0.95279   0.99359   0.63496   0.00000  Uiso   1.00
O7761  O     1.00555   1.11447   0.63062   0.00000  Uiso   1.00
H7762  H     1.00432   1.13256   0.62527   0.00000  Uiso   1.00
H7763  H     0.98197   1.09164   0.51360   0.00000  Uiso   1.00
H7764  H     0.91162   1.07503   0.60839   0.00000  Uiso   1.00
H7765  H     1.10332   1.19310   0.62837   0.00000  Uiso   1.00
C7766  C     1.01167   1.11060   0.70838   0.00000  Uiso   1.00
H7767  H     0.96214   1.08868   0.55927   0.00000  Uiso   1.00
H7768  H     0.95731   1.11726   0.65114   0.00000  Uiso   1.00
C7769  C     1.06665   1.19666   0.51212   0.00000  Uiso   1.00
H7770  H     0.97174   1.13071   0.59453   0.00000  Uiso   1.00
H7771  H     1.17461   1.08697   0.48977   0.00000  Uiso   1.00
N7772  N     1.13664   1.05774   0.66080   0.00000  Uiso   1.00
C7773  C     1.04606   0.99837   0.56135   0.00000  Uiso   1.00
C7774  C     0.92658   1.16912   0.69944   0.00000  Uiso   1.00
N7775  N     0.98406   1.03889   0.49498   0.00000  Uiso   1.00
H7776  H     1.14674   1.18969   0.61485   0.00000  Uiso   1.00
H7777  H     0.94488   1.16374   0.47298   0.00000  Uiso   1.00
C7778  C     0.96332   1.14869   0.47502   0.00000  Uiso   1.00
C7779  C     0.95012   1.13489   0.59057   0.00000  Uiso   1.00
C7780  C     1.19127   1.06759   0.57598   0.00000  Uiso   1.00
C7781  C     0.98507   1.11318   0.71613   0.00000  Uiso   1.00
C7782  C     1.21407   1.18317   0.63796   0.00000  Uiso   1.00
C7783  C     0.91112   0.99968   0.57752   0.00000  Uiso   1.00
H7784  H     0.94697   1.17498   0.70532   0.00000  Uiso   1.00
H7785  H     1.00239   1.11793   0.50176   0.00000  Uiso   1.00
H7786  H     0.96543   1.14006   0.53556   0.00000  Uiso   1.00
H7787  H     1.04892   1.08509   0.66306   0.00000  Uiso   1.00
H7788  H     1.01247   1.20220   0.52607   0.00000  Uiso   1.00
H7789  H     0.91403   1.19426   0.48991   0.00000  Uiso   1.00
C7790  C     1.03345   1.02385   0.71378   0.00000  Uiso   1.00
C7791  C     0.96513   1.11741   0.69506   0.00000  Uiso   1.00
C7792  C     1.17075   1.16892   0.66254   0.00000  Uiso   1.00
C7793  C     0.92734   1.11132   0.53541   0.00000  Uiso   1.00
C7794  C     1.16759   1.02593   0.63391   0.00000  Uiso   1.00
C7795  C     0.90844   1.20464   0.51115   0.00000  Uiso   1.00
H7796  H     1.16059   1.15209   0.52242   0.00000  Uiso   1.00
C7797  C     0.89040   1.10128   0.69786   0.00000  Uiso   1.00
H7798  H     1.01971   1.16850   0.51377   0.00000  Uiso   1.00
C7799  C     1.15280   1.18905   0.67195   0.00000  Uiso   1.00
H7800  H     1.01086   1.17215   0.54857   0.00000  Uiso   1.00
O7801  O     1.02829   1.00128   0.60729   0.00000  Uiso   1.00
C7802  C     1.04203   1.02611   0.55930   0.00000  Uiso   1.00
C7803  C     1.01937   1.00243   0.65389   0.00000  Uiso   1.00
O7804  O     1.15639   1.11123   0.71348   0.00000  Uiso   1.00
H7805  H     1.21805   1.11210   0.48226   0.00000  Uiso   1.00
C7806  C     1.10154   1.21494   0.63663   0.00000  Uiso   1.00
H7807  H     0.94356   1.14960   0.60745   0.00000  Uiso   1.00
H7808  H     0.95141   1.14938   0.57339   0.00000  Uiso   1.00
H7809  H     1.12021   1.20047   0.70090   0.00000  Uiso   1.00
C7810  C     1.17239   0.99886   0.64567   0.00000  Uiso   1.00
C7811  C     1.18301   1.15197   0.61477   0.00000  Uiso   1.00
C7812  C     1.21468   1.05123   0.56807   0.00000  Uiso   1.00
N7813  N     1.03822   1.04981   0.55749   0.00000  Uiso   1.00
C7814  C     1.15251   1.21428   0.65194   0.00000  Uiso   1.00
C7815  C     1.12973   0.97672   0.59103   0.00000  Uiso   1.00
C7816  C     1.07499   1.17398   0.49294   0.00000  Uiso   1.00
O7817  O     1.04802   1.10404   0.67229   0.00000  Uiso   1.00
C7818  C     1.08893   0.98111   0.49949   0.00000  Uiso   1.00
C7819  C     1.11085   0.98081   0.61365   0.00000  Uiso   1.00
C7820  C     1.03677   0.98456   0.58471   0.00000  Uiso   1.00
C7821  C     1.18290   1.08998   0.56043   0.00000  Uiso   1.00
C7822  C     1.09456   1.12601   0.51183   0.00000  Uiso   1.00
N7823  N     1.05512   1.06123   0.63910   0.00000  Uiso   1.00
O7824  O     1.07060   0.99631   0.51595   0.00000  Uiso   1.00
H7825  H     0.93441   1.15344   0.52225   0.00000  Uiso   1.00
H7826  H     1.05453   1.01535   0.71596   0.00000  Uiso   1.00
C7827  C     0.90093   0.99404   0.55057   0.00000  Uiso   1.00
H7828  H     1.16356   1.10187   0.56453   0.00000  Uiso   1.00
C7829  C     1.00019   1.11516   0.65905   0.00000  Uiso   1.00
C7830  C     0.98376   1.10680   0.49705   0.00000  Uiso   1.00
O7831  O     1.05182   1.21340   0.63290   0.00000  Uiso   1.00
C7832  C     1.18129   1.03491   0.61132   0.00000  Uiso   1.00
C7833  C     0.97287   1.11777   0.66757   0.00000  Uiso   1.00
H7834  H     1.03544   1.03870   0.69840   0.00000  Uiso   1.00
C7835  C     0.92679   1.09270   0.61148   0.00000  Uiso   1.00
C7836  C     1.01988   1.10952   0.67970   0.00000  Uiso   1.00
C7837  C     1.01154   0.99091   0.67876   0.00000  Uiso   1.00
H7838  H     1.03939   1.15096   0.48023   0.00000  Uiso   1.00
O7839  O     1.07613   1.09556   0.58068   0.00000  Uiso   1.00
H7840  H     0.92495   1.08030   0.68102   0.00000  Uiso   1.00
C7841  C     1.06323   1.13663   0.55872   0.00000  Uiso   1.00
C7842  C     0.91806   1.09858   0.50803   0.00000  Uiso   1.00
C7843  C     1.07135   1.05627   0.62174   0.00000  Uiso   1.00
C7844  C     1.09220   1.07124   0.57870   0.00000  Uiso   1.00
O7845  O     1.10868   1.08251   0.53116   0.00000  Uiso   1.00
C7846  C     1.07821   1.11206   0.55827   0.00000  Uiso   1.00
C7847  C     0.91948   1.09034   0.70237   0.00000  Uiso   1.00
C7848  C     1.09087   1.05162   0.60013   0.00000  Uiso   1.00
C7849  C     1.09363   1.10663   0.53349   0.00000  Uiso   1.00
C7850  C     1.10695   1.06505   0.55473   0.00000  Uiso   1.00
C7851  C     0.94390   0.98858   0.61402   0.00000  Uiso   1.00
C7852  C     1.13683   1.15783   0.70785   0.00000  Uiso   1.00
H7853  H     1.16815   1.12143   0.48116   0.00000  Uiso   1.00
C7854  C     1.05870   1.20042   0.56365   0.00000  Uiso   1.00
C7855  C     1.13817   1.03575   0.52939   0.00000  Uiso   1.00
C7856  C     1.12140   1.04035   0.55275   0.00000  Uiso   1.00
C7857  C     1.15119   1.04336   0.64836   0.00000  Uiso   1.00
O7858  O     0.91408   1.21657   0.69575   0.00000  Uiso   1.00
C7859  C     1.12163   1.02245   0.57520   0.00000  Uiso   1.00
C7860  C     1.10478   1.02782   0.59825   0.00000  Uiso   1.00
H7861  H     0.96394   1.01106   0.71095   0.00000  Uiso   1.00
H7862  H     0.98767   1.09641   0.47690   0.00000  Uiso   1.00
C7863  C     0.93213   1.10742   0.48476   0.00000  Uiso   1.00
N7864  N     1.15208   1.03360   0.50942   0.00000  Uiso   1.00
O7865  O     1.10166   1.00769   0.61891   0.00000  Uiso   1.00
H7866  H     1.19236   1.16755   0.52275   0.00000  Uiso   1.00
C7867  C     0.94704   1.13464   0.52322   0.00000  Uiso   1.00
O7868  O     1.17502   1.06117   0.59942   0.00000  Uiso   1.00
H7869  H     1.18295   1.14636   0.55102   0.00000  Uiso   1.00
H7870  H     0.92623   1.21718   0.51770   0.00000  Uiso   1.00
H7871  H     0.92557   1.07360   0.56058   0.00000  Uiso   1.00
H7872  H     0.91654   1.10468   0.62771   0.00000  Uiso   1.00
F7873  F     1.22088   1.14156   0.72018   0.00000  Uiso   1.00
H7874  H     1.19613   1.13548   0.62340   0.00000  Uiso   1.00
O7875  O     1.13690   0.99774   0.57328   0.00000  Uiso   1.00
C7876  C     1.17189   1.10805   0.49932   0.00000  Uiso   1.00
C7877  C     0.91983   1.14151   0.69934   0.00000  Uiso   1.00
C7878  C     0.93857   1.09403   0.55987   0.00000  Uiso   1.00
C7879  C     1.18200   1.14826   0.52890   0.00000  Uiso   1.00
H7880  H     1.18613   1.12653   0.66962   0.00000  Uiso   1.00
H7881  H     1.19382   1.15645   0.59584   0.00000  Uiso   1.00
C7882  C     1.15593   1.13748   0.69943   0.00000  Uiso   1.00
O7883  O     1.15769   0.99090   0.66921   0.00000  Uiso   1.00
C7884  C     1.06585   1.15614   0.53855   0.00000  Uiso   1.00
C7885  C     0.97339   1.02790   0.47725   0.00000  Uiso   1.00
C7886  C     1.05235   1.18455   0.53698   0.00000  Uiso   1.00
H7887  H     1.12255   1.20613   0.50290   0.00000  Uiso   1.00
C7888  C     1.19300   1.12097   0.51639   0.00000  Uiso   1.00
C7889  C     1.19109   0.98112   0.63353   0.00000  Uiso   1.00
C7890  C     0.90737   1.18795   0.69283   0.00000  Uiso   1.00
C7891  C     1.19820   1.09879   0.53870   0.00000  Uiso   1.00
H7892  H     1.04630   1.21921   0.56170   0.00000  Uiso   1.00
H7893  H     1.02469   1.02493   0.65334   0.00000  Uiso   1.00
H7894  H     1.10415   1.12113   0.49332   0.00000  Uiso   1.00
C7895  C     0.93017   1.11016   0.58597   0.00000  Uiso   1.00
C7896  C     1.07822   1.15042   0.51356   0.00000  Uiso   1.00
C7897  C     1.12434   1.19206   0.48401   0.00000  Uiso   1.00
C7898  C     0.89310   1.13338   0.69354   0.00000  Uiso   1.00
C7899  C     0.95720   1.12546   0.49517   0.00000  Uiso   1.00
N7900  N     1.00292   1.16369   0.61432   0.00000  Uiso   1.00
C7901  C     1.17179   1.14352   0.67709   0.00000  Uiso   1.00
H7902  H     0.94713   0.97376   0.68895   0.00000  Uiso   1.00
C7903  C     1.13577   1.18360   0.69469   0.00000  Uiso   1.00
H7904  H     0.94601   1.08289   0.61944   0.00000  Uiso   1.00
C7905  C     1.00369   1.21642   0.62133   0.00000  Uiso   1.00
H7906  H     1.08041   1.20696   0.56376   0.00000  Uiso   1.00
H7907  H     1.05317   1.21315   0.50278   0.00000  Uiso   1.00
C7908  C     1.16358   1.19999   0.62588   0.00000  Uiso   1.00
C7909  C     1.00220   1.18742   0.61675   0.00000  Uiso   1.00
C7910  C     0.93702   1.11638   0.70843   0.00000  Uiso   1.00
C7911  C     1.02154   1.18183   0.53105   0.00000  Uiso   1.00
H7912  H     1.21793   1.19957   0.65092   0.00000  Uiso   1.00
C7913  C     1.18344   1.17661   0.63538   0.00000  Uiso   1.00
C7914  C     0.98245   1.02313   0.70732   0.00000  Uiso   1.00
C7915  C     1.05982   0.98360   0.53994   0.00000  Uiso   1.00
C7916  C     1.20083   1.01774   0.59937   0.00000  Uiso   1.00
H7917  H     1.08480   1.20715   0.51852   0.00000  Uiso   1.00
C7918  C     0.93247   0.98300   0.58791   0.00000  Uiso   1.00
H7919  H     0.92126   1.07423   0.71697   0.00000  Uiso   1.00
C7920  C     0.90228   1.12372   0.54857   0.00000  Uiso   1.00
H7921  H     0.92424   1.22151   0.55826   0.00000  Uiso   1.00
H7922  H     0.90744   1.18789   0.52705   0.00000  Uiso   1.00
H7923  H     0.98314   1.03431   0.68638   0.00000  Uiso   1.00
O7924  O     1.17280   1.20163   0.47600   0.00000  Uiso   1.00
C7925  C     0.89643   1.07996   0.50627   0.00000  Uiso   1.00
C7926  C     1.20533   0.99044   0.60923   0.00000  Uiso   1.00
C7927  C     1.10140   0.99227   0.47626   0.00000  Uiso   1.00
H7928  H     0.98132   1.16159   0.48221   0.00000  Uiso   1.00
O7929  O     0.89998   1.02152   0.59312   0.00000  Uiso   1.00
C7930  C     1.10004   1.17799   0.47695   0.00000  Uiso   1.00
H7931  H     1.05326   1.19100   0.58456   0.00000  Uiso   1.00
C7932  C     1.22035   1.12398   0.50089   0.00000  Uiso   1.00
O7933  O     1.21975   1.02598   0.57929   0.00000  Uiso   1.00
H7934  H     1.14560   0.97550   0.72067   0.00000  Uiso   1.00
C7935  C     1.22187   1.19856   0.47421   0.00000  Uiso   1.00
H7936  H     0.88930   1.08081   0.65772   0.00000  Uiso   1.00
H7937  H     1.10034   1.01498   0.47420   0.00000  Uiso   1.00
H7938  H     0.91675   1.18106   0.84258   0.00000  Uiso   1.00
C7939  C     0.97442   1.15288   0.83754   0.00000  Uiso   1.00
H7940  H     1.02399   0.97583   0.82246   0.00000  Uiso   1.00
H7941  H     1.18122   1.16537   0.94301   0.00000  Uiso   1.00
H7942  H     1.09687   1.00798   0.86206   0.00000  Uiso   1.00
C7943  C     0.99096   1.01789   0.84448   0.00000  Uiso   1.00
C7944  C     1.17620   1.00071   0.79424   0.00000  Uiso   1.00
H7945  H     0.92644   1.11124   0.75314   0.00000  Uiso   1.00
H7946  H     0.91541   1.13040   0.87399   0.00000  Uiso   1.00
O7947  O     1.18648   1.02728   0.79059   0.00000  Uiso   1.00
C7948  C     1.12093   1.13272   0.82995   0.00000  Uiso   1.00
H7949  H     0.94540   1.06519   0.89782   0.00000  Uiso   1.00
C7950  C     0.94338   1.12084   0.74003   0.00000  Uiso   1.00
C7951  C     1.04790   1.16207   0.93237   0.00000  Uiso   1.00
C7952  C     1.16514   0.99137   0.82012   0.00000  Uiso   1.00
C7953  C     1.00738   1.05420   0.87059   0.00000  Uiso   1.00
C7954  C     1.17608   0.98148   0.77311   0.00000  Uiso   1.00
C7955  C     0.97922   1.05348   0.87593   0.00000  Uiso   1.00
C7956  C     1.12214   1.15753   0.96270   0.00000  Uiso   1.00
O7957  O     1.06632   1.09268   0.78271   0.00000  Uiso   1.00
H7958  H     0.97218   1.08160   0.77755   0.00000  Uiso   1.00
H7959  H     1.08993   1.00228   0.80473   0.00000  Uiso   1.00
C7960  C     1.02991   1.04550   0.94378   0.00000  Uiso   1.00
H7961  H     1.02699   1.08053   0.81498   0.00000  Uiso   1.00
H7962  H     0.94489   1.14998   0.88297   0.00000  Uiso   1.00
H7963  H     0.91845   1.10966   0.82172   0.00000  Uiso   1.00
H7964  H     0.99874   0.98429   0.74535   0.00000  Uiso   1.00
F7965  F     1.14508   1.11779   0.83495   0.00000  Uiso   1.00
H7966  H     0.91368   1.07254   0.93256   0.00000  Uiso   1.00
C7967  C     1.05744   1.01868   0.82547   0.00000  Uiso   1.00
H7968  H     0.94290   1.03186   0.82028   0.00000  Uiso   1.00
C7969  C     0.94907   1.19868   0.78552   0.00000  Uiso   1.00
C7970  C     0.97770   1.17639   0.82206   0.00000  Uiso   1.00
N7971  N     1.09766   1.07967   0.87000   0.00000  Uiso   1.00
H7972  H     0.99874   1.07319   0.75391   0.00000  Uiso   1.00
H7973  H     1.10596   1.10805   0.91451   0.00000  Uiso   1.00
H7974  H     1.05037   1.02264   0.88291   0.00000  Uiso   1.00
C7975  C     1.07076   1.14016   0.83729   0.00000  Uiso   1.00
C7976  C     1.10046   1.17566   0.81680   0.00000  Uiso   1.00
C7977  C     1.20083   1.07157   0.86237   0.00000  Uiso   1.00
C7978  C     0.98794   1.13021   0.76361   0.00000  Uiso   1.00
H7979  H     0.96505   1.06076   0.82598   0.00000  Uiso   1.00
C7980  C     1.02636   1.15008   0.94759   0.00000  Uiso   1.00
C7981  C     0.98724   1.12171   0.94486   0.00000  Uiso   1.00
C7982  C     1.05532   0.99730   0.84781   0.00000  Uiso   1.00
C7983  C     1.13115   1.17181   0.89581   0.00000  Uiso   1.00
C7984  C     1.08305   0.98933   0.86060   0.00000  Uiso   1.00
C7985  C     1.02194   1.07564   0.88151   0.00000  Uiso   1.00
C7986  C     1.14567   1.05630   0.73646   0.00000  Uiso   1.00
C7987  C     1.18690   1.04627   0.86506   0.00000  Uiso   1.00
H7988  H     0.89149   1.01876   0.96220   0.00000  Uiso   1.00
H7989  H     0.91408   1.16457   0.81159   0.00000  Uiso   1.00
H7990  H     0.92958   1.19071   0.77626   0.00000  Uiso   1.00
H7991  H     0.93359   1.05763   0.84604   0.00000  Uiso   1.00
C7992  C     1.14467   1.15468   0.91859   0.00000  Uiso   1.00
C7993  C     1.16035   1.17426   0.93723   0.00000  Uiso   1.00
H7994  H     1.04444   1.08108   0.87650   0.00000  Uiso   1.00
C7995  C     1.06344   1.06754   0.79658   0.00000  Uiso   1.00
H7996  H     0.98495   1.01558   0.82296   0.00000  Uiso   1.00
C7997  C     0.94708   1.21801   0.83100   0.00000  Uiso   1.00
C7998  C     1.09640   1.10080   0.85735   0.00000  Uiso   1.00
C7999  C     1.18895   1.04337   0.81499   0.00000  Uiso   1.00
H8000  H     0.89026   1.07182   0.90373   0.00000  Uiso   1.00
O8001  O     0.96928   1.10338   0.93139   0.00000  Uiso   1.00
H8002  H     1.14718   1.11991   0.89386   0.00000  Uiso   1.00
C8003  C     1.01060   1.09357   0.90235   0.00000  Uiso   1.00
H8004  H     0.94848   1.11646   0.87402   0.00000  Uiso   1.00
C8005  C     1.02258   1.14594   0.83692   0.00000  Uiso   1.00
H8006  H     0.92568   1.01755   0.87559   0.00000  Uiso   1.00
C8007  C     1.10882   1.07546   0.76138   0.00000  Uiso   1.00
C8008  C     1.09538   1.12473   0.84257   0.00000  Uiso   1.00
N8009  N     1.18051   1.02569   0.91220   0.00000  Uiso   1.00
H8010  H     1.17256   1.11832   0.91923   0.00000  Uiso   1.00
C8011  C     1.04198   1.06302   0.81461   0.00000  Uiso   1.00
O8012  O     1.10369   1.04934   0.77192   0.00000  Uiso   1.00
C8013  C     1.07678   1.02036   0.80386   0.00000  Uiso   1.00
H8014  H     0.98282   1.03920   0.72403   0.00000  Uiso   1.00
N8015  N     1.21429   1.08978   0.76420   0.00000  Uiso   1.00
C8016  C     1.12261   1.14342   0.93844   0.00000  Uiso   1.00
H8017  H     0.93983   1.20554   0.87512   0.00000  Uiso   1.00
C8018  C     1.00350   1.18633   0.81584   0.00000  Uiso   1.00
O8019  O     1.16739   1.00661   0.84356   0.00000  Uiso   1.00
C8020  C     1.07484   1.16632   0.82489   0.00000  Uiso   1.00
C8021  C     1.20109   1.06828   0.81278   0.00000  Uiso   1.00
C8022  C     1.03023   1.06463   0.96544   0.00000  Uiso   1.00
C8023  C     1.08991   1.09688   0.76709   0.00000  Uiso   1.00
H8024  H     1.09109   1.19913   0.94055   0.00000  Uiso   1.00
H8025  H     0.99531   1.11554   0.85164   0.00000  Uiso   1.00
H8026  H     1.11906   1.15608   0.88546   0.00000  Uiso   1.00
H8027  H     1.02412   0.99877   0.88263   0.00000  Uiso   1.00
C8028  C     0.94592   1.00915   0.87346   0.00000  Uiso   1.00
C8029  C     1.12224   1.15844   0.81724   0.00000  Uiso   1.00
H8030  H     0.95432   1.10192   0.82399   0.00000  Uiso   1.00
C8031  C     1.01309   1.12804   0.93496   0.00000  Uiso   1.00
C8032  C     0.92931   1.17033   0.82763   0.00000  Uiso   1.00
H8033  H     0.97541   1.13165   0.78348   0.00000  Uiso   1.00
C8034  C     1.20604   1.08241   0.83631   0.00000  Uiso   1.00
F8035  F     1.14517   1.16670   0.80338   0.00000  Uiso   1.00
O8036  O     1.11871   1.15493   0.72855   0.00000  Uiso   1.00
C8037  C     0.93974   1.11847   0.82062   0.00000  Uiso   1.00
C8038  C     1.13073   1.07954   0.74291   0.00000  Uiso   1.00
C8039  C     1.18125   1.03180   0.84167   0.00000  Uiso   1.00
C8040  C     1.16226   1.13321   0.90381   0.00000  Uiso   1.00
N8041  N     1.05075   1.15583   0.75352   0.00000  Uiso   1.00
C8042  C     0.96755   1.06902   0.89641   0.00000  Uiso   1.00
C8043  C     0.97669   1.13401   0.96889   0.00000  Uiso   1.00
H8044  H     1.00922   1.12213   0.76869   0.00000  Uiso   1.00
C8045  C     1.02643   1.17204   0.82326   0.00000  Uiso   1.00
C8046  C     0.93647   1.13466   0.86873   0.00000  Uiso   1.00
H8047  H     0.93988   1.12642   0.79939   0.00000  Uiso   1.00
C8048  C     1.00973   0.98000   0.72608   0.00000  Uiso   1.00
C8049  C     0.94291   1.14317   0.83950   0.00000  Uiso   1.00
C8050  C     0.94970   1.19035   0.81548   0.00000  Uiso   1.00
C8051  C     0.98334   1.08843   0.91067   0.00000  Uiso   1.00
C8052  C     0.89810   1.05974   0.92253   0.00000  Uiso   1.00
O8053  O     1.04509   1.12924   0.84388   0.00000  Uiso   1.00
C8054  C     1.20787   1.08005   0.78611   0.00000  Uiso   1.00
C8055  C     1.09358   1.12214   0.75402   0.00000  Uiso   1.00
C8056  C     1.03683   1.01227   0.86841   0.00000  Uiso   1.00
H8057  H     1.18783   0.98690   0.75418   0.00000  Uiso   1.00
C8058  C     1.01757   1.03127   0.85257   0.00000  Uiso   1.00
H8059  H     1.11771   1.18715   0.90357   0.00000  Uiso   1.00
H8060  H     0.98848   0.99637   0.85000   0.00000  Uiso   1.00
H8061  H     0.94488   0.98994   0.86075   0.00000  Uiso   1.00
C8062  C     0.96610   1.03142   0.85845   0.00000  Uiso   1.00
C8063  C     1.10317   1.20128   0.80374   0.00000  Uiso   1.00
H8064  H     0.96099   1.06547   0.74856   0.00000  Uiso   1.00
C8065  C     1.18381   1.03501   0.89072   0.00000  Uiso   1.00
C8066  C     1.03797   1.03865   0.82892   0.00000  Uiso   1.00
C8067  C     1.08172   1.04505   0.78960   0.00000  Uiso   1.00
C8068  C     0.97693   1.07999   0.75582   0.00000  Uiso   1.00
H8069  H     1.14588   1.18102   0.88124   0.00000  Uiso   1.00
O8070  O     1.02687   1.11506   0.91098   0.00000  Uiso   1.00
N8071  N     1.03092   1.02981   0.92616   0.00000  Uiso   1.00
C8072  C     1.12935   1.20777   0.96183   0.00000  Uiso   1.00
H8073  H     1.09179   0.97302   0.84822   0.00000  Uiso   1.00
O8074  O     1.05204   1.18294   0.81774   0.00000  Uiso   1.00
C8075  C     0.99671   1.13645   0.84253   0.00000  Uiso   1.00
C8076  C     0.95096   1.04594   0.83592   0.00000  Uiso   1.00
C8077  C     1.07062   1.14129   0.75351   0.00000  Uiso   1.00
H8078  H     1.20367   1.20349   0.88484   0.00000  Uiso   1.00
C8079  C     1.13402   1.10629   0.73101   0.00000  Uiso   1.00
H8080  H     0.95454   1.00330   0.89264   0.00000  Uiso   1.00
O8081  O     1.06860   1.09079   0.94926   0.00000  Uiso   1.00
N8082  N     1.06595   1.17275   0.91973   0.00000  Uiso   1.00
H8083  H     0.98906   1.15085   0.75468   0.00000  Uiso   1.00
C8084  C     1.08657   1.11159   0.95504   0.00000  Uiso   1.00
H8085  H     0.94269   1.14282   0.74545   0.00000  Uiso   1.00
O8086  O     1.21787   1.10875   0.83231   0.00000  Uiso   1.00
H8087  H     1.17728   1.14215   0.88841   0.00000  Uiso   1.00
C8088  C     1.10595   1.12012   0.93457   0.00000  Uiso   1.00
H8089  H     0.90590   1.04070   0.91217   0.00000  Uiso   1.00
H8090  H     1.16458   1.19484   0.92752   0.00000  Uiso   1.00
C8091  C     1.11631   1.12761   0.73821   0.00000  Uiso   1.00
C8092  C     0.97247   1.10975   0.74511   0.00000  Uiso   1.00
H8093  H     0.96354   1.18854   0.77249   0.00000  Uiso   1.00
F8094  F     1.21986   1.18477   0.75770   0.00000  Uiso   1.00
C8095  C     1.14249   1.18056   0.96362   0.00000  Uiso   1.00
O8096  O     1.20900   1.08518   0.88734   0.00000  Uiso   1.00
F8097  F     1.08289   1.21963   0.86607   0.00000  Uiso   1.00
H8098  H     1.00737   1.20656   0.80551   0.00000  Uiso   1.00
H8099  H     0.93338   1.04224   0.95902   0.00000  Uiso   1.00
C8100  C     1.10419   1.21515   0.94950   0.00000  Uiso   1.00
C8101  C     1.22107   1.11082   0.88230   0.00000  Uiso   1.00
H8102  H     1.02701   1.03368   0.73272   0.00000  Uiso   1.00
H8103  H     1.03088   0.97600   0.73429   0.00000  Uiso   1.00
N8104  N     1.15863   1.03599   0.73171   0.00000  Uiso   1.00
H8105  H     1.21941   1.18782   0.94094   0.00000  Uiso   1.00
H8106  H     1.21009   1.21225   0.82366   0.00000  Uiso   1.00
H8107  H     1.07864   0.98060   0.88063   0.00000  Uiso   1.00
H8108  H     1.02607   1.10505   0.72358   0.00000  Uiso   1.00
H8109  H     1.19918   1.21583   0.96181   0.00000  Uiso   1.00
C8110  C     1.05088   1.08410   0.97110   0.00000  Uiso   1.00
C8111  C     1.20507   0.99085   1.04758   0.00000  Uiso   1.00
C8112  C     1.04597   1.13861   1.20485   0.00000  Uiso   1.00
N8113  N     0.97297   1.04707   1.16436   0.00000  Uiso   1.00
C8114  C     1.15876   1.03373   1.12046   0.00000  Uiso   1.00
H8115  H     1.05569   1.18342   1.13143   0.00000  Uiso   1.00
C8116  C     0.96726   1.05510   1.02150   0.00000  Uiso   1.00
C8117  C     1.07658   1.21514   1.09360   0.00000  Uiso   1.00
C8118  C     0.98899   1.04633   1.18164   0.00000  Uiso   1.00
C8119  C     1.08325   1.03608   1.14305   0.00000  Uiso   1.00
H8120  H     1.06137   1.02981   1.04862   0.00000  Uiso   1.00
H8121  H     1.07014   1.19287   1.02411   0.00000  Uiso   1.00
H8122  H     1.11809   1.21662   1.15146   0.00000  Uiso   1.00
H8123  H     1.13489   1.01040   1.03968   0.00000  Uiso   1.00
H8124  H     1.11940   1.04139   1.02802   0.00000  Uiso   1.00
C8125  C     1.16617   1.15731   1.20389   0.00000  Uiso   1.00
C8126  C     1.02992   1.17807   1.01710   0.00000  Uiso   1.00
C8127  C     1.00683   1.04576   1.20415   0.00000  Uiso   1.00
C8128  C     1.05001   1.18885   1.03384   0.00000  Uiso   1.00
C8129  C     1.20932   1.08489   1.21802   0.00000  Uiso   1.00
C8130  C     1.13954   1.17082   1.09661   0.00000  Uiso   1.00
C8131  C     1.14390   1.14669   1.08033   0.00000  Uiso   1.00
O8132  O     1.03685   1.17566   0.98877   0.00000  Uiso   1.00
C8133  C     1.08546   0.97659   1.07721   0.00000  Uiso   1.00
C8134  C     1.15327   1.10590   1.04178   0.00000  Uiso   1.00
C8135  C     1.00440   1.16889   1.02671   0.00000  Uiso   1.00
C8136  C     1.04564   1.18565   1.06248   0.00000  Uiso   1.00
C8137  C     0.89238   1.03912   1.04029   0.00000  Uiso   1.00
H8138  H     0.99908   1.13134   1.20358   0.00000  Uiso   1.00
H8139  H     1.15501   1.17787   1.11241   0.00000  Uiso   1.00
C8140  C     1.16050   1.18426   0.98880   0.00000  Uiso   1.00
H8141  H     0.94276   1.22129   1.09179   0.00000  Uiso   1.00
C8142  C     0.94421   1.05169   1.03844   0.00000  Uiso   1.00
C8143  C     1.10058   1.21314   1.13788   0.00000  Uiso   1.00
C8144  C     1.11871   1.00048   1.10633   0.00000  Uiso   1.00
C8145  C     1.02013   1.17793   1.07305   0.00000  Uiso   1.00
C8146  C     0.91456   1.04843   0.99660   0.00000  Uiso   1.00
C8147  C     1.06622   1.18659   1.08621   0.00000  Uiso   1.00
C8148  C     1.20166   1.01928   1.03972   0.00000  Uiso   1.00
H8149  H     0.90572   0.99900   1.04152   0.00000  Uiso   1.00
H8150  H     1.17012   1.07410   1.17805   0.00000  Uiso   1.00
C8151  C     1.17708   1.00298   0.99934   0.00000  Uiso   1.00
H8152  H     1.15480   1.08398   1.14527   0.00000  Uiso   1.00
H8153  H     1.17514   1.21009   1.03597   0.00000  Uiso   1.00
C8154  C     1.07303   1.03742   1.16923   0.00000  Uiso   1.00
C8155  C     1.09331   1.17163   1.08261   0.00000  Uiso   1.00
H8156  H     1.17844   1.17199   0.98426   0.00000  Uiso   1.00
C8157  C     1.08735   1.12494   0.98098   0.00000  Uiso   1.00
C8158  C     1.10551   1.14859   0.98391   0.00000  Uiso   1.00
C8159  C     1.10441   1.21333   1.10686   0.00000  Uiso   1.00
O8160  O     1.16905   1.13168   1.08260   0.00000  Uiso   1.00
C8161  C     1.03393   1.10064   1.04334   0.00000  Uiso   1.00
N8162  N     1.01865   0.97840   1.05689   0.00000  Uiso   1.00
C8163  C     1.09146   1.03612   1.19127   0.00000  Uiso   1.00
H8164  H     1.08199   1.14252   1.05240   0.00000  Uiso   1.00
C8165  C     1.11533   1.18463   1.09580   0.00000  Uiso   1.00
H8166  H     1.16145   1.16554   1.18351   0.00000  Uiso   1.00
C8167  C     1.17187   1.10913   1.06459   0.00000  Uiso   1.00
H8168  H     1.14281   1.04549   1.07498   0.00000  Uiso   1.00
H8169  H     1.03641   1.09285   1.19564   0.00000  Uiso   1.00
H8170  H     1.01588   1.21990   1.10787   0.00000  Uiso   1.00
H8171  H     1.15270   1.17546   1.00881   0.00000  Uiso   1.00
H8172  H     0.94856   1.05461   1.06033   0.00000  Uiso   1.00
H8173  H     0.98060   1.16375   1.06466   0.00000  Uiso   1.00
C8174  C     1.18193   1.06894   1.02472   0.00000  Uiso   1.00
C8175  C     0.99935   1.16916   1.05481   0.00000  Uiso   1.00
C8176  C     0.96388   1.04768   0.99352   0.00000  Uiso   1.00
C8177  C     1.14075   1.15813   1.22193   0.00000  Uiso   1.00
H8178  H     1.01367   1.15248   1.17789   0.00000  Uiso   1.00
H8179  H     0.97921   1.15475   1.10973   0.00000  Uiso   1.00
C8180  C     1.01160   1.07170   1.01152   0.00000  Uiso   1.00
C8181  C     1.13788   1.08327   0.99978   0.00000  Uiso   1.00
C8182  C     0.91822   1.04829   1.02556   0.00000  Uiso   1.00
H8183  H     1.17061   1.01576   1.11695   0.00000  Uiso   1.00
O8184  O     1.20944   1.20394   1.13813   0.00000  Uiso   1.00
O8185  O     0.98399   1.16141   1.00913   0.00000  Uiso   1.00
H8186  H     1.05657   1.15205   1.11212   0.00000  Uiso   1.00
N8187  N     1.03568   1.11067   1.06506   0.00000  Uiso   1.00
H8188  H     1.17106   1.04996   1.10756   0.00000  Uiso   1.00
H8189  H     1.00717   1.20217   1.13866   0.00000  Uiso   1.00
C8190  C     1.11135   1.03552   1.13823   0.00000  Uiso   1.00
C8191  C     1.01940   1.17577   1.10454   0.00000  Uiso   1.00
O8192  O     1.07214   1.11609   1.00311   0.00000  Uiso   1.00
H8193  H     1.09352   1.19241   1.14500   0.00000  Uiso   1.00
H8194  H     1.10068   1.01061   1.02647   0.00000  Uiso   1.00
H8195  H     0.93158   1.21653   1.17577   0.00000  Uiso   1.00
C8196  C     1.11595   1.14492   1.20581   0.00000  Uiso   1.00
O8197  O     0.99187   1.06522   1.03244   0.00000  Uiso   1.00
O8198  O     1.18661   1.05035   1.00386   0.00000  Uiso   1.00
H8199  H     1.11851   1.14269   1.18349   0.00000  Uiso   1.00
C8200  C     1.00146   1.15171   1.11430   0.00000  Uiso   1.00
C8201  C     1.03193   1.08869   1.01658   0.00000  Uiso   1.00
C8202  C     1.17856   0.97548   1.00845   0.00000  Uiso   1.00
C8203  C     1.10365   1.02720   1.06708   0.00000  Uiso   1.00
C8204  C     1.16887   1.06923   1.15583   0.00000  Uiso   1.00
C8205  C     1.11949   1.03587   1.18729   0.00000  Uiso   1.00
H8206  H     1.19897   1.01791   1.15991   0.00000  Uiso   1.00
H8207  H     1.06899   0.97675   1.06301   0.00000  Uiso   1.00
C8208  C     1.12487   1.13906   1.06153   0.00000  Uiso   1.00
C8209  C     1.05195   1.11038   1.19255   0.00000  Uiso   1.00
C8210  C     1.07516   1.04046   1.06293   0.00000  Uiso   1.00
C8211  C     1.00564   1.20187   1.11486   0.00000  Uiso   1.00
H8212  H     1.17266   1.13641   1.20063   0.00000  Uiso   1.00
H8213  H     1.00806   1.13241   1.10410   0.00000  Uiso   1.00
O8214  O     1.12931   1.12142   1.03997   0.00000  Uiso   1.00
H8215  H     1.07001   1.15904   1.17272   0.00000  Uiso   1.00
H8216  H     1.05343   1.11060   1.16989   0.00000  Uiso   1.00
H8217  H     1.17736   1.02173   1.18901   0.00000  Uiso   1.00
C8218  C     1.19254   1.08789   1.06952   0.00000  Uiso   1.00
C8219  C     1.10094   1.00034   1.08273   0.00000  Uiso   1.00
N8220  N     1.12273   1.08157   0.98185   0.00000  Uiso   1.00
C8221  C     1.18944   1.02463   1.01426   0.00000  Uiso   1.00
H8222  H     1.11012   1.12376   1.21294   0.00000  Uiso   1.00
C8223  C     1.01618   0.97402   1.03382   0.00000  Uiso   1.00
C8224  C     1.19529   1.06699   1.05046   0.00000  Uiso   1.00
C8225  C     1.20834   1.08715   1.09406   0.00000  Uiso   1.00
H8226  H     1.10556   1.15703   1.00574   0.00000  Uiso   1.00
C8227  C     1.16029   1.04064   1.15123   0.00000  Uiso   1.00
C8228  C     1.03458   1.03943   1.19994   0.00000  Uiso   1.00
O8229  O     1.04451   1.03837   1.17197   0.00000  Uiso   1.00
C8230  C     1.12272   1.04489   1.08465   0.00000  Uiso   1.00
C8231  C     1.09873   1.15054   1.06509   0.00000  Uiso   1.00
C8232  C     1.05045   1.17362   1.11145   0.00000  Uiso   1.00
C8233  C     1.11568   1.02268   1.03820   0.00000  Uiso   1.00
H8234  H     1.13209   1.03046   1.20510   0.00000  Uiso   1.00
H8235  H     1.06341   1.03964   1.08209   0.00000  Uiso   1.00
H8236  H     1.07716   1.06252   1.05585   0.00000  Uiso   1.00
C8237  C     1.15831   1.08608   1.02221   0.00000  Uiso   1.00
N8238  N     0.92860   1.12479   0.98825   0.00000  Uiso   1.00
H8239  H     1.21405   0.98507   1.06645   0.00000  Uiso   1.00
H8240  H     1.19096   1.09758   1.21904   0.00000  Uiso   1.00
H8241  H     1.11680   1.06754   1.08420   0.00000  Uiso   1.00
C8242  C     1.12854   1.03027   1.11207   0.00000  Uiso   1.00
C8243  C     0.89642   1.01210   1.05624   0.00000  Uiso   1.00
C8244  C     1.05099   1.09593   0.99669   0.00000  Uiso   1.00
H8245  H     1.18334   1.17111   1.21195   0.00000  Uiso   1.00
H8246  H     1.00343   1.14928   1.13630   0.00000  Uiso   1.00
H8247  H     1.14059   0.97566   1.13615   0.00000  Uiso   1.00
C8248  C     1.10473   1.19280   1.21605   0.00000  Uiso   1.00
H8249  H     1.06834   1.03552   1.12583   0.00000  Uiso   1.00
H8250  H     0.90931   1.01212   1.07419   0.00000  Uiso   1.00
H8251  H     1.17121   0.99915   1.16167   0.00000  Uiso   1.00
C8252  C     1.17791   1.02032   1.16616   0.00000  Uiso   1.00
C8253  C     1.00806   1.06260   0.98382   0.00000  Uiso   1.00
H8254  H     1.19091   1.06915   1.14574   0.00000  Uiso   1.00
H8255  H     1.00915   1.16696   1.21000   0.00000  Uiso   1.00
C8256  C     1.13068   1.03780   1.16026   0.00000  Uiso   1.00
H8257  H     1.05522   1.18075   1.19320   0.00000  Uiso   1.00
H8258  H     1.21089   1.21596   0.99565   0.00000  Uiso   1.00
C8259  C     1.06502   1.16082   1.19371   0.00000  Uiso   1.00
H8260  H     1.07276   1.10352   1.19970   0.00000  Uiso   1.00
C8261  C     0.93725   1.04350   0.98130   0.00000  Uiso   1.00
H8262  H     0.89616   1.05360   1.07873   0.00000  Uiso   1.00
C8263  C     0.99409   1.15043   0.98459   0.00000  Uiso   1.00
H8264  H     1.20718   1.06887   1.20237   0.00000  Uiso   1.00
C8265  C     1.16614   1.21526   0.99206   0.00000  Uiso   1.00
O8266  O     1.08203   1.03402   1.21779   0.00000  Uiso   1.00
C8267  C     1.01545   1.14755   1.20044   0.00000  Uiso   1.00
H8268  H     0.98307   1.20314   1.10897   0.00000  Uiso   1.00
O8269  O     1.21049   1.04173   1.05590   0.00000  Uiso   1.00
H8270  H     1.21456   1.16335   1.16772   0.00000  Uiso   1.00
C8271  C     1.09062   1.16395   1.21235   0.00000  Uiso   1.00
N8272  N     1.22110   1.08737   1.11396   0.00000  Uiso   1.00
C8273  C     1.09681   1.21796   1.20597   0.00000  Uiso   1.00
C8274  C     1.05393   1.03603   1.22175   0.00000  Uiso   1.00
O8275  O     0.98625   1.04790   0.97632   0.00000  Uiso   1.00
C8276  C     1.12508   0.97639   1.11960   0.00000  Uiso   1.00
H8277  H     0.99746   0.98654   1.21051   0.00000  Uiso   1.00
H8278  H     0.94507   1.00303   1.20971   0.00000  Uiso   1.00
H8279  H     1.16603   1.00642   0.97951   0.00000  Uiso   1.00
H8280  H     1.07597   1.22187   1.19960   0.00000  Uiso   1.00
C8281  C     0.94944   1.12924   0.97897   0.00000  Uiso   1.00
C8282  C     1.01907   1.15985   0.97405   0.00000  Uiso   1.00
loop_
_geom_bond_atom_site_label_1
_geom_bond_atom_site_label_2
_geom_bond_distance
_geom_bond_site_symmetry_2
_ccdc_geom_bond_type
O1     C3603   1.410   .     S
O1     C4      1.377   .     S
O2     C36     1.378   .     S
O2     C55     1.462   .     S
N3     C32     1.146   .     S
C4     C171    1.361   .     S
C4     C174    1.431   .     S
H5     C178    1.134   .     S
H6     C20     1.070   .     S
H7     C22     1.112   .     S
C8     O83     1.361   .     S
C8     C11     1.397   .     S
C8     C38     1.392   .     S
H9     C100    1.092   .     S
C10    H61     1.066   .     S
C10    C42     1.518   .     S
C10    H62     1.096   .     S
C10    C109    1.515   .     S
C11    O41     1.390   .     S
C11    C74     1.359   .     S
C12    N144    1.174   .     S
C12    C5623   1.381   1_455 S
H13    C43     1.118   .     S
H14    C81     1.085   .     S
C15    C131    1.400   .     S
C15    C55     1.426   .     S
C15    C2031   1.366   1_545 S
C16    C72     1.390   .     S
C16    O90     1.377   .     S
C16    C106    1.389   .     S
H17    C33     1.114   .     S
C18    C125    1.362   .     S
C18    O108    1.411   .     S
C18    C135    1.439   .     S
C19    C72     1.401   .     S
C19    C122    1.430   .     S
C19    C50     1.560   .     S
C20    C78     1.543   .     S
C20    H119    1.125   .     S
C20    C53     1.549   .     S
C21    C47     1.388   .     S
C21    H52     1.130   .     S
C21    C2096   1.407   1_545 S
C22    H26     1.142   .     S
C22    C139    1.543   .     S
C22    C53     1.504   .     S
C23    C95     1.408   .     S
C23    O83     1.417   .     S
C23    C86     1.383   .     S
C24    C112    1.416   .     S
C24    O2058   1.363   1_545 S
C24    C7747   1.438   1_445 S
C25    O65     1.418   .     S
C25    C55     1.428   .     S
C25    C2155   1.371   1_545 S
H27    C111    1.097   .     S
C28    C97     1.539   .     S
C28    C176    1.396   .     S
C28    C29     1.412   .     S
C29    C171    1.391   .     S
C29    C50     1.505   .     S
C30    C60     1.412   .     S
C30    C36     1.407   .     S
C30    O65     1.399   .     S
N31    C151    1.137   .     S
C32    C125    1.419   .     S
C33    C78     1.576   .     S
C33    H54     1.142   .     S
C33    H121    1.077   .     S
H34    C87     1.100   .     S
H35    C76     1.138   .     S
C36    C124    1.398   .     S
C37    C56     1.368   .     S
C37    C78     1.467   .     S
C37    C2870   1.402   .     S
C38    C46     1.377   .     S
C38    H39     1.064   .     S
H40    C173    1.149   .     S
O41    C95     1.397   .     S
C42    C161    1.518   .     S
C42    C165    1.537   .     S
C42    C64     1.534   .     S
C43    C162    1.541   .     S
C43    C153    1.512   .     S
C43    H113    1.122   .     S
C44    C126    1.385   .     S
C44    C124    1.381   .     S
C44    C110    1.544   .     S
C45    H140    1.144   .     S
C45    C130    1.376   .     S
C45    C333    1.373   .     S
C46    C109    1.545   .     S
C46    C64     1.392   .     S
C47    C179    1.430   .     S
C47    O108    1.401   .     S
C48    H159    1.153   .     S
C48    C123    1.373   .     S
C48    C2139   1.374   1_545 S
H49    C105    1.067   .     S
C50    C746    1.546   .     S
C50    C173    1.587   .     S
H51    C111    1.114   .     S
C53    C123    1.590   .     S
C53    C56     1.503   .     S
C56    C147    1.362   .     S
C57    C156    1.368   .     S
C57    C850    1.375   .     S
C57    H697    1.081   1_554 S
C58    C153    1.535   .     S
C58    H5591   1.084   1_455 S
C58    H5689   1.043   1_455 S
C58    H5700   1.074   1_455 S
C59    C149    1.398   .     S
C59    C130    1.391   .     S
C59    O134    1.380   .     S
C60    H85     1.135   .     S
C60    C126    1.393   .     S
H63    C111    1.108   .     S
C64    C74     1.398   .     S
O66    C152    1.351   .     S
O66    C727    1.394   1_554 S
H67    C137    1.136   .     S
C68    H129    1.117   .     S
C68    H148    1.076   .     S
C68    C153    1.552   .     S
C68    H150    1.125   .     S
H69    C74     1.095   .     S
H70    C171    1.067   .     S
H71    C118    1.051   .     S
C72    H80     1.148   .     S
C73    C160    1.435   .     S
C73    C152    1.403   .     S
C73    C2140   1.374   1_545 S
C75    C115    1.422   .     S
C75    C125    1.410   .     S
C75    O90     1.419   .     S
C76    C110    1.489   .     S
C76    H96     1.118   .     S
C76    H132    1.084   .     S
H77    C105    1.135   .     S
C78    C81     1.505   .     S
C79    N136    1.126   .     S
C79    C112    1.486   .     S
C81    H89     1.090   .     S
C81    H127    1.153   .     S
O82    C93     1.341   .     S
O82    C141    1.390   .     S
H84    C154    1.109   .     S
C86    C901    1.387   .     S
C86    C151    1.427   .     S
C87    H128    1.022   .     S
C87    C142    1.524   .     S
C87    C5556   1.562   1_455 S
H88    C173    1.134   .     S
H91    C100    1.106   .     S
C92    C143    1.461   .     S
C92    O94     1.432   .     S
C92    C2094   1.372   1_545 S
C93    C137    1.358   .     S
C93    C5626   1.418   1_455 S
O94    C130    1.365   .     S
C95    C911    1.398   .     S
C97    C173    1.535   .     S
C97    C768    1.495   .     S
C97    C100    1.547   .     S
C98    C142    1.620   .     S
C98    H99     1.095   .     S
C98    H163    1.144   .     S
C98    C110    1.559   .     S
C100   H145    1.161   .     S
H101   C103    1.077   .     S
H102   C103    1.102   .     S
C103   H107    1.085   .     S
C103   C110    1.502   .     S
C104   C135    1.427   .     S
C104   C115    1.408   .     S
C104   C308    1.416   .     S
C105   H114    1.077   .     S
C105   C109    1.537   .     S
C106   C118    1.386   .     S
C106   O155    1.395   .     S
C109   C111    1.536   .     S
C112   C141    1.379   .     S
C115   O155    1.416   .     S
H116   C161    1.056   .     S
C117   C123    1.420   .     S
C117   C139    1.513   .     S
C117   C2057   1.393   1_545 S
C118   C122    1.395   .     S
H120   C124    1.077   .     S
C122   C836    1.549   .     S
C126   C142    1.526   .     S
C131   N167    1.187   .     S
H133   C626    1.142   1_554 S
O134   C143    1.399   .     S
C135   O360    1.396   .     S
C137   C146    1.343   .     S
O138   C2868   1.395   .     S
O138   C222    1.384   .     S
C139   C154    1.502   .     S
C139   C186    1.530   .     S
C141   C5534   1.418   1_455 S
C142   C146    1.544   .     S
C143   C182    1.396   .     S
C146   C5548   1.354   1_455 S
C147   H164    1.074   .     S
C147   C2764   1.413   .     S
C149   C344    1.365   .     S
C149   H5608   1.120   1_455 S
C152   C2023   1.389   1_545 S
C153   C590    1.538   1_554 S
C154   H372    1.086   .     S
C154   H241    1.143   .     S
C156   C904    1.394   .     S
C156   C162    1.493   .     S
H157   C161    1.118   .     S
H158   C739    1.118   1_554 S
C160   N2873   1.130   .     S
C161   C684    1.511   1_554 S
C162   C676    1.546   1_554 S
C162   C6131   1.537   1_454 S
C165   C646    1.403   1_554 S
C165   C739    1.388   1_554 S
H166   C178    1.090   .     S
N168   C324    1.186   .     S
O169   C2762   1.392   .     S
O169   C595    1.368   1_554 S
N170   C581    1.149   1_554 S
O172   C5674   1.371   1_455 S
O172   C5817   1.372   1_455 S
C174   C176    1.389   .     S
C174   O2775   1.379   .     S
H175   C310    1.124   .     S
C176   H181    1.038   .     S
H177   C5542   1.082   1_455 S
C178   H594    1.095   1_554 S
C178   C684    1.504   1_554 S
C179   O360    1.357   .     S
C179   C300    1.399   .     S
H180   C2715   1.135   .     S
C182   C2145   1.420   1_545 S
C182   C5583   1.437   1_455 S
C183   C188    1.426   .     S
C183   C259    1.380   .     S
C183   C235    1.492   .     S
C184   H270    1.125   .     S
C184   H273    1.087   .     S
C184   H326    1.162   .     S
C184   C235    1.570   .     S
C185   C282    1.525   .     S
C185   C219    1.523   .     S
C185   C2185   1.505   1_545 S
C185   C2272   1.478   1_545 S
C186   H191    1.062   .     S
C186   H2138   1.112   1_545 S
C186   H2307   1.147   1_545 S
H187   C339    1.100   .     S
C188   C334    1.359   .     S
C188   H279    1.139   .     S
C189   C343    1.498   .     S
C189   C346    1.388   .     S
C189   C329    1.403   .     S
H190   O216    0.964   .     S
C192   C323    1.375   .     S
C192   C295    1.405   .     S
C192   H294    1.113   .     S
O193   C229    1.398   .     S
O193   C261    1.399   .     S
C194   O313    1.378   .     S
C194   C311    1.418   .     S
C194   C298    1.452   .     S
H195   C200    1.065   .     S
C196   H321    1.066   .     S
C196   C229    1.390   .     S
C196   C198    1.432   .     S
H197   C258    1.180   .     S
C198   C549    1.542   .     S
C198   C230    1.390   .     S
H199   C337    1.114   .     S
C200   H223    1.164   .     S
C200   H289    1.077   .     S
C200   C225    1.584   .     S
C201   C295    1.463   .     S
C201   C305    1.378   .     S
C201   O216    1.370   .     S
H202   C329    1.153   .     S
C203   H319    1.065   .     S
C203   H206    1.131   .     S
C203   H331    1.051   .     S
C203   C341    1.567   .     S
C204   C261    1.384   .     S
C204   C213    1.407   .     S
C204   C2372   1.413   1_545 S
H205   C219    1.068   .     S
N207   C237    1.146   .     S
H208   C228    1.099   .     S
C209   C325    1.376   .     S
C209   C972    1.377   .     S
C209   C342    1.570   .     S
H210   O332    0.950   .     S
C211   O318    1.340   .     S
C211   C327    1.379   .     S
C211   C329    1.358   .     S
C212   C303    1.395   .     S
C212   O214    1.449   .     S
C212   C363    1.359   .     S
C213   N5765   1.154   1_455 S
O214   C250    1.336   .     S
C215   C306    1.542   .     S
C215   C281    1.527   .     S
C215   C259    1.483   .     S
C215   C255    1.559   .     S
C217   C272    1.501   .     S
C217   C974    1.590   .     S
C217   C1029   1.541   .     S
C217   C224    1.532   .     S
C218   H299    1.098   .     S
C218   H328    1.115   .     S
C218   C342    1.500   .     S
C218   H292    1.143   .     S
C219   H233    1.108   .     S
C219   C2365   1.539   1_545 S
O220   C303    1.428   .     S
O220   C334    1.370   .     S
H221   C247    1.099   .     S
C222   C269    1.386   .     S
C222   C232    1.385   .     S
C224   H368    1.143   .     S
C224   H551    1.085   .     S
C224   H1154   1.063   .     S
C225   C323    1.532   .     S
C225   C2185   1.552   1_545 S
C225   C2380   1.604   1_545 S
C226   C275    1.415   .     S
C226   N264    1.208   .     S
C227   C275    1.350   .     S
C227   C261    1.461   .     S
C227   O317    1.378   .     S
C228   H274    1.131   .     S
C228   C235    1.571   .     S
C228   H316    1.115   .     S
C229   C288    1.436   .     S
C230   C403    1.526   .     S
C230   C291    1.392   .     S
H231   C307    1.099   .     S
C232   C298    1.375   .     S
C232   O2934   1.399   .     S
C234   C322    1.530   .     S
C234   C337    1.575   .     S
C234   C350    1.540   .     S
C234   C344    1.586   .     S
C235   C306    1.527   .     S
H236   C272    1.121   .     S
C237   C363    1.384   .     S
H238   C2380   1.133   1_545 S
H239   C272    1.101   .     S
H240   C247    1.123   .     S
H242   C361    1.090   .     S
H243   C246    1.099   .     S
H244   C255    1.066   .     S
C245   H253    1.124   .     S
C245   C250    1.412   .     S
C245   C259    1.376   .     S
C246   H283    1.110   .     S
C246   H335    1.119   .     S
C246   C342    1.483   .     S
C247   H293    1.163   .     S
C247   C249    1.465   .     S
C248   C281    1.428   .     S
C248   C285    1.370   .     S
C248   C249    1.535   .     S
C249   C255    1.599   .     S
C249   C252    1.597   .     S
C250   C334    1.380   .     S
H251   C306    1.126   .     S
C252   H271    1.061   .     S
C252   H284    1.104   .     S
C252   H340    1.120   .     S
C254   C307    1.393   .     S
C254   C256    1.418   .     S
C254   O336    1.367   .     S
C255   H268    1.164   .     S
C256   O313    1.371   .     S
C256   C285    1.388   .     S
C257   H444    1.115   .     S
C257   C343    1.537   .     S
C257   H314    1.113   .     S
C257   H315    1.151   .     S
C258   H553    1.090   .     S
C258   C348    1.605   .     S
C258   H539    1.110   .     S
H260   C277    1.173   .     S
H262   C272    1.059   .     S
H263   C297    1.146   .     S
H265   C3066   1.078   .     S
H266   C339    1.120   .     S
C267   C300    1.396   .     S
C267   C2096   1.392   1_545 S
C267   C2293   1.517   1_545 S
C269   C324    1.377   .     S
C269   C311    1.367   .     S
C275   C2370   1.426   1_545 S
H276   C1021   1.091   .     S
C277   H301    1.077   .     S
C277   H280    1.042   .     S
C277   C341    1.485   .     S
H278   C337    1.109   .     S
C281   C307    1.415   .     S
C282   C305    1.379   .     S
C282   C323    1.434   .     S
C285   H290    1.092   .     S
H286   C291    1.153   .     S
H287   C322    1.078   .     S
C288   O317    1.356   .     S
C288   C291    1.412   .     S
C295   O332    1.400   .     S
C296   O318    1.397   .     S
C296   C347    1.411   .     S
C296   C370    1.387   .     S
C297   C342    1.484   .     S
C297   C2892   1.517   .     S
C297   H320    1.114   .     S
C298   C369    1.419   .     S
C300   H338    1.116   .     S
N302   C308    1.164   .     S
C303   C989    1.384   .     S
H304   C339    1.109   .     S
C305   H309    1.119   .     S
C306   H312    1.155   .     S
C310   C350    1.353   .     S
C310   C5817   1.391   1_455 S
C311   O336    1.450   .     S
C322   H5808   1.072   1_455 S
C322   C5874   1.534   1_455 S
C325   C3780   1.385   .     S
C325   C2892   1.547   .     S
C327   O353    1.323   .     S
C327   C359    1.411   .     S
H330   C2361   1.062   1_545 S
C333   C344    1.389   .     S
C333   C341    1.565   .     S
C337   C341    1.524   .     S
C339   C348    1.522   .     S
C343   C373    1.591   .     S
C343   C477    1.604   .     S
H345   C1022   1.097   .     S
C346   C359    1.342   .     S
C346   C1044   1.512   .     S
C347   O353    1.381   .     S
C347   C5749   1.383   1_455 S
C348   C2267   1.536   1_545 S
C348   C2358   1.512   1_545 S
H349   C361    1.132   .     S
C350   C5872   1.375   1_455 S
H351   C3033   1.172   .     S
H352   C2226   1.117   1_545 S
H354   C3034   1.071   .     S
H355   C939    1.098   .     S
H356   C3049   1.112   .     S
C357   C382    1.376   .     S
C357   H358    1.073   .     S
C357   C5787   1.411   1_455 S
C359   H1051   1.092   .     S
C361   C403    1.492   .     S
C361   H527    1.088   .     S
N362   C2382   1.152   1_545 S
C363   C1010   1.406   .     S
H364   C3033   1.124   .     S
H365   C373    1.107   .     S
H366   C974    1.131   .     S
H367   C404    1.102   .     S
C369   N2957   1.182   .     S
C370   C5799   1.380   1_455 S
C370   C5878   1.414   1_455 S
H371   C3112   1.064   .     S
C373   C1044   1.495   .     S
C373   H392    1.123   .     S
C374   C420    1.353   .     S
C374   C423    1.397   .     S
C374   H533    1.119   .     S
H375   C571    1.116   .     S
C376   C492    1.414   .     S
C376   C2541   1.389   1_545 S
C376   C5945   1.580   1_455 S
C377   C1095   1.532   .     S
C377   C494    1.439   .     S
C377   C526    1.360   .     S
H378   C485    1.133   .     S
N379   C2475   1.147   1_545 S
H380   C2266   1.111   1_545 S
C381   H410    1.135   .     S
C381   C386    1.398   .     S
C381   C449    1.342   .     S
C382   C549    1.508   .     S
C382   C435    1.420   .     S
H383   C412    1.090   .     S
C384   C398    1.382   .     S
C384   C423    1.437   .     S
C384   O490    1.400   .     S
C385   C430    1.413   .     S
C385   C441    1.418   .     S
C385   O390    1.403   .     S
C386   C437    1.375   .     S
C386   O394    1.407   .     S
H387   O417    0.983   .     S
H388   C448    1.089   .     S
O389   C503    1.414   .     S
O389   C543    1.415   .     S
O390   C437    1.466   .     S
C391   C393    1.437   .     S
C391   C452    1.386   .     S
C391   O434    1.363   .     S
C393   H402    1.113   .     S
C393   C429    1.390   .     S
O394   C441    1.407   .     S
H395   C398    1.106   .     S
O396   C414    1.417   .     S
O396   C504    1.398   .     S
H397   C500    1.113   .     S
C398   C486    1.403   .     S
N399   C436    1.147   .     S
C400   C427    1.361   .     S
C400   O417    1.381   .     S
C400   C492    1.379   .     S
C401   H3236   1.052   .     S
C401   C465    1.606   .     S
C401   H489    1.052   .     S
C401   C538    1.541   .     S
C403   C534    1.566   .     S
C403   C476    1.573   .     S
C404   C451    1.585   .     S
C404   H478    1.153   .     S
C404   H6058   1.116   1_455 S
H405   C530    1.104   .     S
H406   C519    1.125   .     S
C407   C510    1.384   .     S
C407   C433    1.379   .     S
C407   C511    1.415   .     S
H408   C525    1.106   .     S
N409   C507    1.139   .     S
H411   C2464   1.147   1_545 S
C412   C432    1.393   .     S
C412   C437    1.424   .     S
C413   C504    1.404   .     S
C413   C496    1.375   .     S
C413   C507    1.408   .     S
C414   C418    1.385   .     S
C414   C494    1.391   .     S
H415   C480    1.138   .     S
C416   H540    1.119   .     S
C416   H537    1.084   .     S
C416   C451    1.573   .     S
C416   H6009   1.094   1_455 S
C418   C483    1.399   .     S
C418   O521    1.362   .     S
N419   C511    1.185   .     S
C420   C465    1.548   .     S
C420   C486    1.387   .     S
H421   C519    1.080   .     S
O422   C461    1.437   .     S
O422   C516    1.401   .     S
C423   O2397   1.358   1_545 S
C424   C439    1.331   .     S
C424   C429    1.369   .     S
C424   C2403   1.522   1_545 S
C425   C470    1.402   .     S
C425   C469    1.419   .     S
C425   O454    1.314   .     S
H426   C477    1.123   .     S
C427   O2421   1.447   1_545 S
C427   C2435   1.363   1_545 S
H428   C522    1.126   .     S
C429   C2411   1.536   1_545 S
C430   C508    1.416   .     S
C430   C468    1.410   .     S
H431   C2532   1.121   1_545 S
C432   C449    1.394   .     S
C432   C475    1.581   .     S
C433   C496    1.382   .     S
C433   O434    1.398   .     S
C435   C451    1.419   .     S
C435   C5993   1.333   1_455 S
C436   C450    1.373   .     S
H438   C466    1.059   .     S
C439   C452    1.402   .     S
C439   H467    1.080   .     S
H440   C2464   1.162   1_545 S
C441   C450    1.385   .     S
C442   C468    1.408   .     S
C442   C450    1.422   .     S
C442   O502    1.401   .     S
C443   C487    1.520   .     S
C443   C500    1.427   .     S
C443   C524    1.361   .     S
H445   C471    1.124   .     S
C446   H459    1.082   .     S
C446   H447    1.134   .     S
C446   H495    1.107   .     S
C446   C482    1.484   .     S
C448   H488    1.084   .     S
C448   C475    1.529   .     S
C448   C555    1.529   .     S
C449   C482    1.537   .     S
C451   C530    1.514   .     S
C452   O497    1.355   .     S
H453   C463    1.122   .     S
O454   C468    1.351   .     S
H455   C522    1.157   .     S
H456   C476    1.121   .     S
H457   C534    1.174   .     S
H458   C477    1.096   .     S
C460   C461    1.386   .     S
C460   C1135   1.400   .     S
C460   C501    1.468   .     S
C461   C543    1.389   .     S
C462   C487    1.508   .     S
C462   H536    1.144   .     S
C462   C474    1.511   .     S
C462   H5907   1.140   1_455 S
C463   H512    1.054   .     S
C463   H535    1.157   .     S
C463   C538    1.517   .     S
H464   C492    1.107   .     S
C465   C3091   1.512   .     S
C465   C466    1.513   .     S
C466   C3149   1.518   .     S
C466   H544    1.140   .     S
C469   C499    1.352   .     S
C469   O502    1.393   .     S
C470   C548    1.419   .     S
C470   H481    1.103   .     S
C471   H472    1.099   .     S
C471   C474    1.553   .     S
C471   H541    1.085   .     S
H473   C476    1.140   .     S
C474   C719    1.512   .     S
C474   C5918   1.476   1_455 S
C475   C491    1.490   .     S
C475   C562    1.526   .     S
C476   H498    1.092   .     S
C477   H531    1.096   .     S
H479   C513    1.126   .     S
C480   H552    1.097   .     S
C480   C482    1.562   .     S
C480   H532    1.096   .     S
C482   C491    1.519   .     S
C483   H517    1.126   .     S
C483   C526    1.382   .     S
C484   C524    1.544   .     S
C484   C522    1.478   .     S
C484   C525    1.560   .     S
C484   C519    1.494   .     S
C485   H520    1.093   .     S
C485   C538    1.517   .     S
C485   H542    1.100   .     S
C486   C538    1.499   .     S
C487   C519    1.530   .     S
C487   C528    1.468   .     S
O490   C2540   1.372   1_545 S
C491   H506    1.053   .     S
C491   H598    1.082   .     S
H493   C534    1.115   .     S
C494   H509    1.191   .     S
C496   O497    1.420   .     S
C499   C3158   1.429   .     S
C499   H545    1.093   .     S
C500   C503    1.409   .     S
C501   N518    1.182   .     S
C503   C516    1.415   .     S
C504   C510    1.414   .     S
H505   C530    1.183   .     S
C508   N529    1.162   .     S
C510   O521    1.384   .     S
C513   C516    1.354   .     S
C513   C524    1.395   .     S
H514   C525    1.115   .     S
H515   C522    1.069   .     S
H523   C525    1.063   .     S
C526   C1172   1.547   .     S
C528   C672    1.359   .     S
C528   C719    1.446   .     S
C530   C549    1.528   .     S
C534   C549    1.528   .     S
C543   C1133   1.418   .     S
H546   C3075   1.106   .     S
H547   C1216   1.088   .     S
C548   C3155   1.581   .     S
C548   C3158   1.370   .     S
H550   C5986   1.081   1_455 S
H554   C619    1.083   .     S
C555   C648    1.523   .     S
C555   C569    1.512   .     S
C555   C587    1.525   .     S
C556   C704    1.399   .     S
C556   C672    1.408   .     S
C556   O694    1.416   .     S
C557   C565    1.392   .     S
C557   H2651   1.094   1_545 S
C557   C2687   1.370   1_545 S
O558   C703    1.363   .     S
O558   C629    1.389   .     S
C559   O608    1.362   .     S
C559   C627    1.454   .     S
C559   C589    1.389   .     S
O560   C1283   1.439   .     S
O560   C742    1.391   .     S
C561   H647    1.095   .     S
C561   H586    1.128   .     S
C561   C564    1.559   .     S
C561   C650    1.561   .     S
C562   C572    1.356   .     S
C562   C569    1.411   .     S
C563   C589    1.411   .     S
C563   C602    1.380   .     S
C563   O637    1.387   .     S
C564   C726    1.541   .     S
C564   C1373   1.541   .     S
C564   C1376   1.512   .     S
C565   C636    1.384   .     S
C565   O600    1.396   .     S
H566   C619    1.111   .     S
H567   C591    1.096   .     S
H568   C648    1.107   .     S
C569   C663    1.413   .     S
H570   C644    1.129   .     S
C571   H630    1.084   .     S
C571   H730    1.132   .     S
C571   C733    1.579   .     S
C572   C574    1.362   .     S
C572   H734    1.076   .     S
C573   C631    1.369   .     S
C573   C693    1.384   .     S
C573   C620    1.395   .     S
C574   O641    1.405   .     S
C574   C579    1.414   .     S
H575   C613    1.094   .     S
H576   C686    1.141   .     S
C577   C703    1.427   .     S
C577   O664    1.373   .     S
C577   C604    1.385   .     S
C578   C3391   1.409   .     S
C578   C712    1.424   .     S
C578   H597    1.084   .     S
C579   C663    1.359   .     S
C579   O638    1.379   .     S
C580   C695    1.508   .     S
C580   C675    1.482   .     S
C580   C644    1.540   .     S
C580   C626    1.520   .     S
C581   C721    1.397   .     S
C581   N170    1.149   1_556 S
N582   C622    1.174   .     S
H583   C709    1.162   .     S
O584   C688    1.428   .     S
O584   C3415   1.389   .     S
C585   H731    1.202   .     S
C585   C624    1.508   .     S
C585   H729    1.088   .     S
C585   H2594   1.082   1_545 S
C587   H691    1.160   .     S
C587   H680    1.085   .     S
C587   H690    1.087   .     S
H588   C644    1.138   .     S
C589   C609    1.440   .     S
C590   C676    1.385   .     S
C590   C685    1.405   .     S
C590   C153    1.538   1_556 S
C591   C618    1.385   .     S
C591   C646    1.372   .     S
N592   C601    1.109   .     S
H593   C677    1.138   .     S
H594   C178    1.095   1_556 S
C595   C3338   1.397   .     S
C595   C721    1.352   .     S
C595   O169    1.368   1_556 S
C596   C675    1.390   .     S
C596   C679    1.390   .     S
C596   C673    1.548   .     S
O599   C704    1.332   .     S
O599   C606    1.398   .     S
O600   C602    1.464   .     S
C601   C603    1.377   .     S
C602   C603    1.379   .     S
C603   C627    1.405   .     S
C604   C676    1.418   .     S
C604   H698    1.113   .     S
N605   C631    1.153   .     S
C606   C621    1.365   .     S
C606   C693    1.414   .     S
C607   C642    1.403   .     S
C607   O692    1.382   .     S
C607   C677    1.410   .     S
O608   C618    1.368   .     S
C609   N666    1.170   .     S
O610   H689    0.958   .     S
O610   C642    1.419   .     S
C611   C624    1.478   .     S
C611   C617    1.431   .     S
C611   C686    1.376   .     S
H612   C695    1.062   .     S
C613   H711    1.066   .     S
C613   C667    1.486   .     S
C613   H716    1.114   .     S
C614   C625    1.366   .     S
C614   N706    1.177   .     S
C615   C618    1.395   .     S
C615   O616    1.427   .     S
C615   C739    1.387   .     S
O616   C627    1.388   .     S
C617   C677    1.403   .     S
C617   C673    1.536   .     S
C619   H639    1.131   .     S
C619   C624    1.544   .     S
C620   O664    1.413   .     S
C620   C629    1.434   .     S
C621   C629    1.364   .     S
C621   C668    1.397   .     S
C622   C682    1.381   .     S
C623   C650    1.545   .     S
C623   C713    1.445   .     S
C623   C709    1.396   .     S
C624   C649    1.520   .     S
C625   C687    1.362   .     S
C625   C688    1.385   .     S
C626   H654    1.098   .     S
C626   H645    1.112   .     S
C626   H133    1.142   1_556 S
N628   C701    1.168   .     S
C632   C713    1.329   .     S
C632   H651    1.136   .     S
C632   C705    1.444   .     S
H633   C634    1.078   .     S
C634   C657    1.346   .     S
C634   C636    1.400   .     S
H635   C648    1.130   .     S
C636   O637    1.376   .     S
O638   C670    1.433   .     S
N640   C2603   1.154   1_545 S
O641   C687    1.475   .     S
C642   C686    1.381   .     S
C643   O707    1.334   .     S
C643   C662    1.432   .     S
C643   C3291   1.376   .     S
C644   C673    1.537   .     S
C646   C684    1.515   .     S
C646   C165    1.403   1_556 S
C648   H655    1.099   .     S
C649   H700    1.069   .     S
C649   C673    1.529   .     S
C649   H659    1.135   .     S
C650   C1387   1.537   .     S
C650   C1302   1.543   .     S
C652   O681    1.422   .     S
C652   C682    1.442   .     S
C652   C688    1.406   .     S
H653   C674    1.128   .     S
H656   C674    1.114   .     S
C657   C733    1.517   .     S
C657   C2687   1.412   1_545 S
H658   C714    1.131   .     S
H660   C699    1.102   .     S
H661   C663    1.089   .     S
C662   C721    1.381   .     S
C662   O715    1.414   .     S
H665   C695    1.083   .     S
C667   C1387   1.562   .     S
C667   C1296   1.526   .     S
C667   C713    1.504   .     S
C668   N671    1.208   .     S
C669   H743    1.059   .     S
C669   C727    1.407   .     S
C669   C675    1.393   .     S
C670   C682    1.406   .     S
C670   C687    1.396   .     S
C672   H737    1.091   .     S
C674   H723    1.071   .     S
C674   C684    1.557   .     S
C676   C162    1.546   1_556 S
H678   C695    1.096   .     S
C679   C728    1.364   .     S
C679   H724    1.098   .     S
O681   C712    1.459   .     S
N683   C722    1.167   .     S
C684   C178    1.504   1_556 S
C684   C161    1.511   1_556 S
C685   H702    1.129   .     S
C685   C703    1.420   .     S
O692   H720    0.981   .     S
C693   O694    1.384   .     S
H696   C726    1.137   .     S
H697   C57     1.081   1_556 S
C699   C704    1.391   .     S
C699   C719    1.363   .     S
C701   C2569   1.349   1_545 S
C705   O715    1.371   .     S
C705   C717    1.395   .     S
O707   C717    1.407   .     S
H708   C1296   1.118   .     S
C709   C717    1.330   .     S
H710   C726    1.136   .     S
C712   C3415   1.410   .     S
C714   C733    1.511   .     S
C714   H736    1.097   .     S
C714   H725    1.151   .     S
N718   C3246   1.146   .     S
C722   C740    1.443   .     S
C726   H735    1.154   .     S
C727   C728    1.400   .     S
C727   O66     1.394   1_556 S
C728   O2657   1.382   1_545 S
C732   C740    1.429   .     S
C732   O2625   1.400   1_545 S
C732   C6238   1.389   1_455 S
C733   C2658   1.511   1_545 S
C738   C742    1.421   .     S
C738   O741    1.342   .     S
C738   C6108   1.390   1_455 S
C739   C165    1.388   1_556 S
C739   H158    1.118   1_556 S
C740   C6100   1.396   1_455 S
O741   C1364   1.428   .     S
C742   C6186   1.388   1_455 S
C744   C771    1.390   .     S
C744   C780    1.441   .     S
C744   O797    1.448   .     S
H745   C894    1.121   .     S
C746   H766    1.112   .     S
C746   H873    1.086   .     S
C746   C836    1.561   .     S
C747   C823    1.333   .     S
C747   H844    1.081   .     S
C747   C6281   1.392   1_455 S
C748   C880    1.539   .     S
C748   H804    1.083   .     S
C748   H1398   1.144   1_554 S
C748   C6405   1.548   1_455 S
F749   C754    1.307   .     S
H750   C765    1.075   .     S
C751   C761    1.374   .     S
C751   C875    1.379   .     S
C751   O800    1.372   .     S
C752   H858    1.092   .     S
C752   H920    1.073   .     S
C752   H847    1.106   .     S
C752   C836    1.530   .     S
H753   C793    1.078   .     S
C754   C911    1.373   .     S
C754   C901    1.408   .     S
C755   H883    1.163   .     S
C755   C914    1.415   .     S
C755   C865    1.352   .     S
H756   C775    1.081   .     S
C757   N897    1.199   .     S
C757   C771    1.366   .     S
O758   C781    1.451   .     S
O758   C823    1.358   .     S
C759   H879    1.089   .     S
C759   C902    1.451   .     S
C759   C774    1.379   .     S
H760   C916    1.052   .     S
C761   H848    1.122   .     S
C761   C888    1.360   .     S
N762   C905    1.182   .     S
C763   C824    1.552   .     S
C763   C869    1.558   .     S
C763   C1240   1.516   1_554 S
C763   C1348   1.524   1_554 S
H764   C852    1.120   .     S
C765   H784    1.116   .     S
C765   C833    1.514   .     S
C765   H786    1.081   .     S
H767   C775    1.082   .     S
C768   H893    1.129   .     S
C768   H814    1.130   .     S
C768   H821    1.081   .     S
H769   C824    1.113   .     S
C770   C852    1.562   .     S
C770   C859    1.484   .     S
C770   C861    1.531   .     S
C770   C872    1.593   .     S
C771   C790    1.365   .     S
H772   C861    1.154   .     S
H773   C859    1.095   .     S
C774   C1039   1.418   .     S
C774   O1056   1.381   .     S
C775   C836    1.529   .     S
C775   H871    1.108   .     S
C776   C860    1.369   .     S
C776   N1291   1.179   1_554 S
C777   C780    1.383   .     S
C777   C779    1.411   .     S
C777   C781    1.406   .     S
N778   C779    1.173   .     S
C780   O820    1.370   .     S
C781   C790    1.389   .     S
H782   C856    1.049   .     S
C783   C810    1.543   .     S
C783   C846    1.547   .     S
C783   C795    1.531   .     S
C783   C852    1.494   .     S
H785   C795    1.080   .     S
C787   H866    1.068   .     S
C787   C845    1.527   .     S
C787   C887    1.579   .     S
C787   H807    1.104   .     S
C788   H822    1.074   .     S
C788   C803    1.416   .     S
C788   C875    1.417   .     S
O789   C790    1.414   .     S
O789   C815    1.413   .     S
C791   H908    1.134   .     S
C791   H900    1.119   .     S
C791   C6405   1.541   1_455 S
C791   H6444   1.096   1_455 S
O792   C825    1.375   .     S
O792   C794    1.376   .     S
C793   H913    1.107   .     S
C793   C899    1.481   .     S
C793   H984    1.109   .     S
C794   C867    1.394   .     S
C794   C850    1.381   .     S
C795   C899    1.556   .     S
C795   H918    1.048   .     S
C796   C831    1.375   .     S
C796   C3492   1.355   .     S
C796   O811    1.434   .     S
O797   C813    1.401   .     S
C798   C1671   1.557   .     S
C798   C856    1.529   .     S
C798   C1507   1.513   .     S
C798   C981    1.482   .     S
C799   C812    1.371   .     S
C799   H874    1.116   .     S
C799   C813    1.413   .     S
O800   C831    1.374   .     S
C801   C815    1.353   .     S
C801   H849    1.144   .     S
C801   C6300   1.377   1_455 S
H802   C824    1.065   .     S
C803   C888    1.410   .     S
C803   C1239   1.529   1_554 S
H805   C881    1.069   .     S
H806   C826    1.054   .     S
C808   H878    1.109   .     S
C808   C829    1.534   .     S
C808   H891    1.134   .     S
C808   H835    1.115   .     S
H809   C824    1.090   .     S
C810   C872    1.408   .     S
C810   C927    1.375   .     S
O811   C875    1.439   .     S
C812   C869    1.394   .     S
C812   C1399   1.534   1_554 S
C813   C863    1.405   .     S
C815   C823    1.402   .     S
H816   C832    1.143   .     S
H817   C854    1.125   .     S
C818   C853    1.395   .     S
C818   C825    1.388   .     S
C818   C1245   1.401   1_554 S
H819   C881    1.140   .     S
O820   C863    1.364   .     S
C825   C903    1.410   .     S
C826   C863    1.414   .     S
C826   C869    1.361   .     S
C827   O862    1.389   .     S
C827   C841    1.364   .     S
C827   C892    1.428   .     S
N828   C837    1.150   .     S
C829   C889    1.563   .     S
C829   C894    1.599   .     S
C829   C1330   1.494   1_554 S
H830   C861    1.116   .     S
C831   C895    1.385   .     S
C832   H843    1.117   .     S
C832   C899    1.597   .     S
C832   H839    1.078   .     S
C833   C1502   1.511   .     S
C833   C865    1.548   .     S
C833   C870    1.515   .     S
H834   C881    1.064   .     S
C837   C895    1.376   .     S
H838   C841    1.134   .     S
H840   C861    1.104   .     S
C841   C919    1.365   .     S
H842   C867    1.111   .     S
C845   C856    1.555   .     S
C845   C963    1.544   .     S
C845   C978    1.532   .     S
C846   C907    1.369   .     S
C846   C902    1.350   .     S
C850   O923    1.358   .     S
H851   C885    1.081   .     S
C852   H855    1.136   .     S
C853   N877    1.168   .     S
C854   C1528   1.372   .     S
C854   C6303   1.379   1_455 S
C856   H965    1.043   .     S
H857   C859    1.129   .     S
C859   H868    1.118   .     S
C860   C906    1.405   .     S
C860   C890    1.405   .     S
O862   C898    1.393   .     S
F864   C901    1.346   .     S
C865   C1436   1.393   .     S
C867   C904    1.373   .     S
C870   H921    1.122   .     S
C870   C1527   1.561   .     S
C870   H884    1.116   .     S
C872   C916    1.346   .     S
C876   C3613   1.395   .     S
C876   C890    1.407   .     S
C876   O1408   1.403   .     S
C880   C909    1.571   .     S
C880   C889    1.552   .     S
C880   C1393   1.493   1_554 S
C881   C887    1.488   .     S
H882   C885    1.119   .     S
C885   C887    1.577   .     S
C885   H912    1.061   .     S
H886   C889    1.169   .     S
C887   C1049   1.439   .     S
C888   C1399   1.555   1_554 S
C889   H1510   1.094   .     S
C890   O896    1.395   .     S
C892   C1513   1.401   .     S
C892   O1020   1.363   .     S
C894   H915    1.132   .     S
C894   H1516   1.136   .     S
C895   C3509   1.405   .     S
O896   C914    1.346   .     S
C898   C3625   1.399   .     S
C898   C969    1.419   .     S
C899   C902    1.550   .     S
C903   O923    1.355   .     S
C903   C1334   1.420   1_554 S
C904   C5551   1.491   1_455 S
C905   C911    1.350   .     S
C906   C3488   1.425   .     S
C906   O3436   1.372   .     S
C907   H917    1.068   .     S
C907   C1039   1.403   .     S
C909   C1471   1.384   .     S
C909   C6427   1.374   1_455 S
H910   C1348   1.076   1_554 S
C914   C1455   1.399   .     S
C916   C1001   1.448   .     S
C919   C1517   1.456   .     S
C919   C1527   1.527   .     S
H922   C1507   1.124   .     S
N924   C3782   1.153   .     S
H925   C1058   1.091   .     S
O926   C962    1.409   .     S
O926   C1033   1.401   .     S
C927   H1047   1.127   .     S
C927   C988    1.385   .     S
C928   C964    1.378   .     S
C928   N945    1.156   .     S
C929   C1017   1.505   .     S
C929   C1022   1.537   .     S
C929   C974    1.518   .     S
C929   C943    1.533   .     S
C930   C1022   1.546   .     S
C930   C1011   1.494   .     S
C930   C1030   1.528   .     S
C930   C1021   1.530   .     S
C931   O1035   1.401   .     S
C931   C958    1.433   .     S
C931   C980    1.398   .     S
H932   C949    1.088   .     S
H933   C1041   1.147   .     S
C934   C1651   1.422   .     S
C934   C942    1.397   .     S
C934   O6502   1.400   1_455 S
C935   O976    1.362   .     S
C935   C975    1.421   .     S
C935   C956    1.390   .     S
C936   C1018   1.519   .     S
C936   C966    1.590   .     S
C936   C1053   1.561   .     S
C936   C991    1.508   .     S
H937   C975    1.126   .     S
O938   C1032   1.333   .     S
O938   C961    1.388   .     S
C939   C1032   1.366   .     S
C939   C1029   1.428   .     S
C940   C979    1.406   .     S
C940   H1026   1.084   .     S
C940   C941    1.404   .     S
C941   C1034   1.406   .     S
C941   C1062   1.459   .     S
C942   H1055   1.150   .     S
C942   C963    1.346   .     S
C943   C1029   1.410   .     S
C943   C998    1.357   .     S
H944   C1021   1.057   .     S
H946   C986    1.057   .     S
O947   C1001   1.402   .     S
O947   C1043   1.378   .     S
H948   C1030   1.143   .     S
C949   C1012   1.410   .     S
C949   C1034   1.406   .     S
C950   C1024   1.454   .     S
C950   O953    1.382   .     S
C950   C1004   1.360   .     S
C951   C992    1.408   .     S
C951   N993    1.149   .     S
C952   C955    1.403   .     S
C952   C980    1.430   .     S
C952   O996    1.397   .     S
O953   C958    1.394   .     S
N954   C1003   1.122   .     S
C955   C964    1.341   .     S
C955   O985    1.408   .     S
C956   C986    1.436   .     S
C956   O1036   1.391   .     S
H957   C1000   1.088   .     S
C958   C964    1.366   .     S
O959   C1010   1.385   .     S
O959   C1039   1.421   .     S
H960   C966    1.127   .     S
C961   C990    1.439   .     S
C961   C3670   1.424   .     S
C962   C1543   1.349   .     S
C962   C1038   1.457   .     S
C963   C981    1.410   .     S
C966   H968    1.087   .     S
C966   H994    1.118   .     S
C967   C972    1.367   .     S
C967   C1050   1.439   .     S
C967   O970    1.364   .     S
C969   C3716   1.329   .     S
C969   O1020   1.419   .     S
O970   C971    1.378   .     S
C971   C1002   1.414   .     S
C971   C1007   1.373   .     S
C972   H977    1.103   .     S
H973   C1030   1.126   .     S
C974   H1040   1.123   .     S
C975   C1017   1.355   .     S
O976   C1016   1.385   .     S
C978   C1049   1.408   .     S
C978   C1000   1.375   .     S
C979   O996    1.405   .     S
C979   C1012   1.396   .     S
C980   C997    1.434   .     S
C981   C1652   1.405   .     S
H982   C998    1.124   .     S
H983   C1022   1.098   .     S
O985   C1012   1.399   .     S
C986   C1011   1.399   .     S
C987   C1007   1.384   .     S
C987   N1031   1.141   .     S
C988   C1001   1.447   .     S
C988   O1025   1.392   .     S
C989   C1003   1.442   .     S
C989   C1042   1.407   .     S
C990   C1009   1.407   .     S
C990   O1008   1.401   .     S
C991   H1218   1.114   .     S
C991   H1545   1.121   .     S
C991   H1028   1.082   .     S
C992   C1027   1.370   .     S
C992   C1016   1.437   .     S
N995   C997    1.129   .     S
C998   C1037   1.386   .     S
H999   C1041   1.108   .     S
C1000  C1024   1.369   .     S
C1002  O3717   1.416   .     S
C1002  C3736   1.378   .     S
C1004  H1054   1.124   .     S
C1004  C1049   1.438   .     S
C1005  C1015   1.384   .     S
C1005  O1036   1.374   .     S
C1005  C1016   1.388   .     S
C1006  N1019   1.153   .     S
C1006  C1009   1.463   .     S
C1007  C1048   1.383   .     S
O1008  C1037   1.411   .     S
C1009  C3689   1.397   .     S
C1010  C1042   1.404   .     S
C1011  C1017   1.358   .     S
C1013  N1014   1.149   .     S
C1013  C1015   1.418   .     S
C1015  C1033   1.356   .     S
C1018  C1604   1.555   .     S
C1018  H1568   1.099   .     S
C1018  H1052   1.072   .     S
C1021  H1045   1.099   .     S
H1023  C1030   1.025   .     S
C1024  O1035   1.381   .     S
O1025  C1048   1.413   .     S
C1027  C1033   1.456   .     S
C1027  O1046   1.405   .     S
C1032  C1037   1.448   .     S
C1034  C1044   1.542   .     S
C1038  C1586   1.408   .     S
C1038  O1046   1.339   .     S
C1041  C1581   1.509   .     S
C1041  C1604   1.551   .     S
C1042  O1056   1.425   .     S
C1043  C1048   1.443   .     S
C1043  C3736   1.396   .     S
C1044  C1211   1.520   .     S
C1050  C3780   1.395   .     S
C1050  O3717   1.422   .     S
C1053  C1668   1.369   .     S
C1053  C1205   1.425   .     S
H1057  C1173   1.124   .     S
C1058  C1581   1.550   .     S
C1058  H1059   1.105   .     S
C1058  H1658   1.087   .     S
C1060  H1097   1.113   .     S
C1060  C1096   1.568   .     S
C1060  H1073   1.114   .     S
C1060  C1176   1.505   .     S
H1061  C1211   1.074   .     S
C1062  C1098   1.528   .     S
C1062  C1161   1.540   .     S
C1062  C1211   1.517   .     S
C1063  C1122   1.370   .     S
C1063  H1223   1.092   .     S
C1063  C1203   1.337   .     S
C1064  C1168   1.404   .     S
C1064  C1112   1.385   .     S
C1064  C1158   1.412   .     S
C1065  C1135   1.412   .     S
C1065  O1124   1.428   .     S
C1065  C1133   1.397   .     S
C1066  H1089   1.024   .     S
C1066  H1179   1.090   .     S
C1066  H1114   1.132   .     S
C1066  C1113   1.580   .     S
C1067  C1117   1.549   .     S
C1067  C1119   1.508   .     S
C1067  C1131   1.571   .     S
C1067  C1074   1.553   .     S
C1068  H1121   1.121   .     S
C1068  C1117   1.368   .     S
C1068  C1077   1.349   .     S
H1069  C1116   1.113   .     S
H1070  C1197   1.096   .     S
C1071  C1113   1.572   .     S
C1071  C1116   1.389   .     S
C1071  C1119   1.347   .     S
H1072  C1165   1.070   .     S
C1074  H1130   1.061   .     S
C1074  C1185   1.554   .     S
C1074  H1129   1.110   .     S
O1075  C1155   1.406   .     S
O1075  C1138   1.412   .     S
H1076  C1161   1.090   .     S
C1077  C1085   1.431   .     S
C1077  O1174   1.389   .     S
C1078  C3863   1.524   .     S
C1078  C1189   1.340   .     S
C1078  C3835   1.405   .     S
C1079  H1106   1.114   .     S
C1079  C1113   1.490   .     S
C1079  H1171   1.119   .     S
C1079  H1196   1.115   .     S
C1080  H1118   1.106   .     S
C1080  C1136   1.402   .     S
C1080  C1142   1.398   .     S
H1081  C1084   1.068   .     S
C1082  H1166   1.067   .     S
C1082  H1705   1.059   .     S
C1082  C1096   1.521   .     S
C1082  C1090   1.512   .     S
H1083  C1125   1.050   .     S
C1084  H1147   1.112   .     S
C1084  H1210   1.115   .     S
C1084  C3844   1.531   .     S
C1085  C1200   1.399   .     S
C1085  O1124   1.366   .     S
H1086  C1211   1.120   .     S
H1087  C1161   1.092   .     S
H1088  C1098   1.083   .     S
C1090  C1103   1.524   .     S
C1090  C1704   1.518   .     S
C1090  C1110   1.525   .     S
O1091  C1109   1.388   .     S
O1091  C1159   1.341   .     S
N1092  C1201   1.148   .     S
H1093  C1216   1.086   .     S
H1094  C1131   1.074   .     S
C1095  C1202   1.579   .     S
C1095  C1195   1.517   .     S
C1095  C1216   1.553   .     S
C1096  C1203   1.536   .     S
C1096  C1290   1.485   .     S
C1098  H1193   1.100   .     S
C1098  H1192   1.131   .     S
O1099  C1108   1.403   .     S
O1099  C1168   1.387   .     S
C1100  C1109   1.357   .     S
C1100  C1119   1.377   .     S
C1100  H1163   1.076   .     S
O1101  C1160   1.391   .     S
O1101  C1178   1.411   .     S
O1102  C1177   1.401   .     S
O1102  C1142   1.384   .     S
C1103  H1183   1.066   .     S
C1103  H1186   1.123   .     S
C1103  H1204   1.045   .     S
H1104  C1161   1.104   .     S
C1105  C1178   1.447   .     S
C1105  C1159   1.384   .     S
C1105  C1190   1.388   .     S
H1107  C1165   1.134   .     S
C1108  C1194   1.400   .     S
C1108  C1122   1.444   .     S
C1109  C1180   1.393   .     S
C1110  C1194   1.376   .     S
C1110  C1203   1.418   .     S
H1111  C1209   1.110   .     S
C1112  N1728   1.163   .     S
C1113  C1131   1.483   .     S
C1115  C1213   1.394   .     S
C1115  O1261   1.418   .     S
C1115  C1356   1.378   .     S
C1116  C1180   1.368   .     S
C1117  C1150   1.350   .     S
C1120  O1235   1.331   .     S
C1120  C1344   1.402   .     S
C1120  C1168   1.423   .     S
C1122  O1235   1.376   .     S
C1123  C1175   1.396   .     S
C1123  C1198   1.414   .     S
C1123  C1145   1.373   .     S
C1125  H1396   1.115   .     S
C1125  C1176   1.552   .     S
C1125  H1144   1.072   .     S
H1126  C1134   1.095   .     S
H1127  C1195   1.099   .     S
H1128  C1195   1.114   .     S
C1131  H1148   1.070   .     S
C1132  C1152   1.419   .     S
C1132  H1212   1.103   .     S
C1132  C3835   1.394   .     S
C1133  C6748   1.394   1_455 S
C1134  H1169   1.058   .     S
C1134  H1188   1.103   .     S
C1134  C1185   1.555   .     S
C1135  O1174   1.397   .     S
C1136  C1172   1.564   .     S
C1136  C1199   1.397   .     S
C1137  C1173   1.556   .     S
C1137  C1165   1.508   .     S
C1137  C1199   1.526   .     S
C1137  C1164   1.587   .     S
C1138  C1142   1.412   .     S
C1138  C1197   1.404   .     S
H1139  C1173   1.094   .     S
H1140  C1164   1.149   .     S
O1141  C1175   1.429   .     S
O1141  C1152   1.361   .     S
H1143  C1202   1.112   .     S
C1145  N1167   1.144   .     S
H1146  C1151   1.083   .     S
O1149  C1180   1.379   .     S
O1149  C1198   1.416   .     S
C1150  C1185   1.525   .     S
C1150  C1200   1.411   .     S
C1151  H1184   1.142   .     S
C1151  H1206   1.104   .     S
C1151  C1844   1.524   .     S
C1152  C1160   1.398   .     S
H1153  C1164   1.138   .     S
C1155  C1177   1.410   .     S
C1155  C3890   1.416   .     S
C1156  C1205   1.406   .     S
C1156  C1823   1.446   .     S
C1156  O1170   1.375   .     S
H1157  C1205   1.092   .     S
C1158  C1285   1.405   .     S
C1158  O1207   1.443   .     S
C1159  C1198   1.378   .     S
C1160  C1189   1.409   .     S
N1162  C1190   1.150   .     S
C1164  C1172   1.535   .     S
C1165  H1182   1.111   .     S
O1170  C4627   1.421   .     S
C1172  C1202   1.496   .     S
C1173  H1208   1.126   .     S
C1175  C1178   1.415   .     S
C1176  C1343   1.522   .     S
C1176  C1209   1.532   .     S
C1177  C3878   1.402   .     S
H1181  C1202   1.094   .     S
C1185  C6660   1.625   1_455 S
H1187  C1189   1.109   .     S
H1191  C1195   1.101   .     S
C1194  H1760   1.102   .     S
C1197  C1199   1.401   .     S
C1200  H6756   1.052   1_455 S
C1201  C4541   1.387   .     S
O1207  C1213   1.391   .     S
C1209  H1217   1.103   .     S
C1209  H1311   1.039   .     S
C1213  C6712   1.413   1_455 S
H1214  C1216   1.110   .     S
H1215  C3112   1.077   .     S
C1219  H1310   1.095   .     S
C1219  C1327   1.497   .     S
C1219  C1237   1.517   .     S
C1219  H1288   1.066   .     S
H1220  C1332   1.104   .     S
H1221  C1382   1.191   .     S
C1222  H1271   1.099   .     S
C1222  H1269   1.039   .     S
C1222  C1256   1.518   .     S
C1222  H1254   1.116   .     S
H1224  C1325   1.115   .     S
H1225  C1284   1.101   .     S
N1226  C1250   1.188   .     S
C1227  C1355   1.323   .     S
C1227  C1364   1.375   .     S
C1227  C1262   1.434   .     S
H1228  C1388   1.121   .     S
H1229  C1246   1.090   .     S
C1230  H1255   1.132   .     S
C1230  H1276   1.063   .     S
C1230  H1349   1.113   .     S
C1230  C1237   1.560   .     S
C1231  H1234   1.108   .     S
C1231  C1272   1.391   .     S
C1231  C1331   1.365   .     S
C1232  C1388   1.374   .     S
C1232  C2001   1.436   .     S
C1232  O1930   1.390   .     S
O1233  C1341   1.409   .     S
O1233  C1992   1.423   .     S
H1236  C1284   1.153   .     S
C1237  C1260   1.542   .     S
C1237  C1308   1.520   .     S
O1238  C3993   1.404   .     S
O1238  C4128   1.375   .     S
C1239  C1298   1.511   .     S
C1239  C1337   1.539   .     S
C1239  C1325   1.506   .     S
C1239  C803    1.529   1_556 S
C1240  C1399   1.541   .     S
C1240  H1368   1.124   .     S
C1240  H1383   1.082   .     S
C1240  C763    1.516   1_556 S
H1241  C1284   1.111   .     S
N1242  C1299   1.177   .     S
C1243  C1258   1.399   .     S
C1243  C1366   1.405   .     S
C1243  H1275   1.112   .     S
O1244  C1362   1.358   .     S
O1244  C1346   1.393   .     S
C1245  O1300   1.396   .     S
C1245  C1353   1.424   .     S
C1245  C818    1.401   1_556 S
C1246  C1341   1.358   .     S
C1246  C1280   1.392   .     S
N1247  C1360   1.130   .     S
H1248  C3981   1.131   .     S
H1249  C1356   1.036   .     S
C1250  C1334   1.414   .     S
C1251  C1256   1.526   .     S
C1251  H1253   1.111   .     S
C1251  H1268   1.072   .     S
C1251  H1317   1.125   .     S
H1252  C1337   1.083   .     S
C1256  C1270   1.518   .     S
C1256  C1292   1.504   .     S
H1257  C1387   1.133   .     S
C1258  C1278   1.480   .     S
C1258  C1318   1.383   .     S
C1259  C3959   1.391   .     S
C1259  C1347   1.388   .     S
C1259  C1346   1.445   .     S
C1260  H1357   1.100   .     S
C1260  H1345   1.109   .     S
C1260  H1313   1.160   .     S
O1261  C1285   1.376   .     S
C1262  N1289   1.170   .     S
H1263  C1391   1.152   .     S
C1264  C1920   1.407   .     S
C1264  O1320   1.413   .     S
C1264  C1287   1.402   .     S
H1265  C1296   1.101   .     S
C1266  H1328   1.148   .     S
C1266  C1292   1.387   .     S
C1266  C1362   1.393   .     S
N1267  C1347   1.157   .     S
C1270  H1282   1.143   .     S
C1270  H1273   1.081   .     S
C1270  C1327   1.573   .     S
C1272  C1292   1.406   .     S
C1272  C1327   1.525   .     S
H1274  C6923   1.146   1_455 S
H1277  C1297   1.091   .     S
C1278  C1297   1.522   .     S
C1278  C1284   1.573   .     S
C1278  C1384   1.550   .     S
C1279  C1341   1.429   .     S
C1279  C1392   1.392   .     S
C1279  O1907   1.450   .     S
C1280  C1316   1.526   .     S
C1280  C1323   1.394   .     S
H1281  C1339   1.057   .     S
C1283  C1336   1.319   .     S
C1283  C1364   1.384   .     S
C1285  C1344   1.381   .     S
O1286  C1366   1.408   .     S
O1286  C1321   1.405   .     S
C1287  C1997   1.390   .     S
C1287  C1340   1.396   .     S
C1290  C1343   1.408   .     S
C1290  C1305   1.421   .     S
N1291  C776    1.179   1_556 S
H1293  C1384   1.142   .     S
H1294  C1298   1.087   .     S
H1295  C1296   1.085   .     S
C1297  H1338   1.146   .     S
C1297  C1316   1.521   .     S
C1298  H1380   1.131   .     S
C1298  H1371   1.113   .     S
C1299  C1336   1.399   .     S
O1300  C1365   1.353   .     S
H1301  C1314   1.115   .     S
C1302  C1382   1.442   .     S
C1302  C1376   1.413   .     S
C1303  C1308   1.407   .     S
C1303  H1306   1.086   .     S
C1303  C1365   1.367   .     S
C1304  C1370   1.424   .     S
C1304  C1342   1.396   .     S
C1304  C3980   1.361   .     S
C1305  C1329   1.338   .     S
C1305  H1924   1.063   .     S
C1307  C1327   1.467   .     S
C1307  C1308   1.375   .     S
C1307  C1314   1.390   .     S
H1309  C1373   1.092   .     S
C1312  N1319   1.162   .     S
C1312  C4140   1.392   .     S
C1314  C1326   1.372   .     S
H1315  C1325   1.124   .     S
C1316  C1377   1.535   .     S
C1316  C1318   1.516   .     S
C1318  C1339   1.381   .     S
O1320  C1359   1.414   .     S
C1321  C1336   1.408   .     S
C1321  C1355   1.403   .     S
O1322  C1355   1.374   .     S
O1322  C1324   1.411   .     S
C1323  C1389   1.549   .     S
C1323  C1392   1.437   .     S
C1324  C1339   1.444   .     S
C1324  C1366   1.402   .     S
C1325  H1375   1.070   .     S
C1326  C1365   1.414   .     S
C1326  O1361   1.373   .     S
C1329  O1878   1.396   .     S
C1329  C1359   1.429   .     S
C1330  C1393   1.393   .     S
C1330  C1388   1.394   .     S
C1330  C829    1.494   1_556 S
C1331  C1362   1.413   .     S
C1331  O1358   1.423   .     S
C1332  C1343   1.366   .     S
C1332  C1359   1.334   .     S
N1333  C1340   1.186   .     S
C1334  C1353   1.354   .     S
C1334  C903    1.420   1_556 S
C1335  C1382   1.336   .     S
C1335  C1351   1.461   .     S
C1335  O1386   1.402   .     S
C1337  C1399   1.504   .     S
C1337  H1372   1.103   .     S
C1342  C1346   1.433   .     S
C1342  O1358   1.383   .     S
C1344  C1360   1.411   .     S
C1348  H1367   1.095   .     S
C1348  H1374   1.098   .     S
C1348  H910    1.076   1_556 S
C1348  C763    1.524   1_556 S
H1350  C1373   1.141   .     S
C1351  O3961   1.420   .     S
C1351  C1391   1.380   .     S
H1352  C4143   1.103   .     S
C1353  O1361   1.418   .     S
N1354  C1370   1.133   .     S
C1356  C6752   1.411   1_455 S
N1363  C1395   1.115   .     S
H1369  C1384   1.137   .     S
C1373  H1379   1.093   .     S
C1376  C1391   1.403   .     S
C1377  C1389   1.523   .     S
C1377  H1394   1.102   .     S
C1377  H6851   1.115   1_455 S
C1378  C2001   1.400   .     S
C1378  H1397   1.103   .     S
C1378  C1393   1.403   .     S
H1381  C6811   1.108   1_455 S
C1384  H6846   1.053   1_455 S
N1385  C4029   1.118   .     S
O1386  C3990   1.406   .     S
C1387  H1390   1.092   .     S
C1389  C6811   1.586   1_455 S
C1389  C6923   1.535   1_455 S
C1392  H1959   1.140   .     S
C1393  C880    1.493   1_556 S
C1395  C1946   1.402   .     S
H1398  C748    1.144   1_556 S
C1399  C812    1.534   1_556 S
C1399  C888    1.555   1_556 S
H1400  C1410   1.138   .     S
C1401  C1449   1.399   .     S
C1401  C1460   1.400   .     S
C1401  O1492   1.398   .     S
C1402  C1508   1.524   .     S
C1402  H1515   1.128   .     S
C1402  H4470   1.123   .     S
C1402  H1565   1.135   .     S
H1403  C1519   1.076   .     S
H1404  C1426   1.149   .     S
C1405  C1455   1.394   .     S
C1405  C1436   1.384   .     S
C1405  H1433   1.058   .     S
H1406  C1428   1.121   .     S
H1407  C1426   1.125   .     S
O1408  C1455   1.359   .     S
H1409  C4197   1.048   .     S
C1410  C1475   1.519   .     S
C1410  H1435   1.051   .     S
C1410  H1580   1.122   .     S
H1411  C1451   1.030   .     S
C1412  O1463   1.363   .     S
C1412  C1528   1.455   .     S
C1412  C7091   1.441   1_455 S
O1413  C1454   1.387   .     S
O1413  C4307   1.356   .     S
C1414  C1466   1.552   .     S
C1414  H1498   1.141   .     S
C1414  C1423   1.555   .     S
C1414  H1476   1.107   .     S
C1415  O1522   1.448   .     S
C1415  C1440   1.375   .     S
C1415  C1454   1.353   .     S
N1416  C1659   1.166   .     S
H1417  C1443   1.092   .     S
C1418  N1458   1.180   .     S
C1418  C1440   1.436   .     S
H1419  C1451   1.087   .     S
C1420  C1470   1.372   .     S
C1420  C1467   1.399   .     S
C1420  C1429   1.397   .     S
C1421  C1441   1.396   .     S
C1421  C1491   1.390   .     S
C1421  C1445   1.428   .     S
H1422  C1521   1.088   .     S
C1423  C1465   1.504   .     S
C1423  C1468   1.526   .     S
C1423  C1443   1.569   .     S
C1424  H1506   1.172   .     S
C1424  H1525   1.071   .     S
C1424  H1493   1.157   .     S
C1424  C1475   1.570   .     S
H1425  C1519   1.078   .     S
C1426  H1514   1.106   .     S
C1426  C1508   1.556   .     S
H1427  C1507   1.117   .     S
C1428  H1512   1.098   .     S
C1428  C4195   1.537   .     S
C1428  C1508   1.520   .     S
C1429  N1503   1.145   .     S
C1430  H1497   1.126   .     S
C1430  H1469   1.070   .     S
C1430  H1453   1.130   .     S
C1430  C1466   1.499   .     S
H1431  C1464   1.125   .     S
H1432  C1511   1.114   .     S
C1434  C1490   1.351   .     S
C1434  C1452   1.599   .     S
C1434  C1468   1.403   .     S
C1436  C1527   1.554   .     S
H1437  C1511   1.186   .     S
H1438  C1502   1.079   .     S
H1439  C1459   1.129   .     S
C1440  C1483   1.397   .     S
C1441  O1472   1.391   .     S
C1441  C1467   1.383   .     S
H1442  C1443   1.069   .     S
C1443  C1452   1.559   .     S
H1444  C1488   1.147   .     S
C1445  N1446   1.165   .     S
H1447  C1482   1.106   .     S
H1448  C1451   1.052   .     S
C1449  O1509   1.359   .     S
C1449  C1489   1.386   .     S
H1450  C1460   1.074   .     S
C1451  C1452   1.550   .     S
C1452  C1459   1.519   .     S
C1454  C1524   1.400   .     S
H1456  C1511   1.138   .     S
C1457  H1532   1.116   .     S
C1457  H1505   1.113   .     S
C1457  C1499   1.536   .     S
C1457  H1535   1.102   .     S
C1459  H1481   1.095   .     S
C1459  H1500   1.143   .     S
C1460  C1465   1.373   .     S
H1461  C1482   1.109   .     S
H1462  C1488   1.074   .     S
O1463  C1491   1.358   .     S
C1464  C4193   1.380   .     S
C1464  C1552   1.416   .     S
C1465  C1478   1.406   .     S
C1466  C1488   1.540   .     S
C1466  C1478   1.524   .     S
C1467  O1484   1.398   .     S
C1468  C1494   1.397   .     S
C1470  O1479   1.436   .     S
C1470  C1491   1.441   .     S
C1471  H1474   1.105   .     S
C1471  C7005   1.418   1_455 S
O1472  C1486   1.376   .     S
O1473  C1483   1.414   .     S
O1473  C1974   1.390   1_554 S
C1475  C2367   1.528   .     S
C1475  C1611   1.572   .     S
C1477  C1494   1.385   .     S
C1477  O1484   1.365   .     S
C1477  C1486   1.446   .     S
C1478  C1489   1.399   .     S
O1479  C1528   1.388   .     S
H1480  C1489   1.107   .     S
C1482  H1496   1.149   .     S
C1482  C4266   1.533   .     S
C1483  C1994   1.413   1_554 S
H1485  C1502   1.128   .     S
C1486  C1490   1.405   .     S
H1487  C1490   1.070   .     S
C1488  H1495   1.082   .     S
O1492  C1518   1.403   .     S
C1494  H1501   1.085   .     S
C1499  C1517   1.545   .     S
C1499  C1519   1.591   .     S
C1499  C1511   1.486   .     S
C1502  H1530   1.127   .     S
H1504  C1521   1.145   .     S
C1507  H1531   1.111   .     S
C1508  C4191   1.486   .     S
O1509  C2072   1.369   .     S
C1513  C1517   1.377   .     S
C1513  H1665   1.074   .     S
C1518  C2072   1.417   .     S
C1518  C2049   1.394   .     S
C1519  C1527   1.489   .     S
N1520  C2169   1.149   .     S
C1521  H1536   1.086   .     S
C1521  C1917   1.569   1_554 S
O1522  C4186   1.388   .     S
H1523  C2162   1.108   .     S
C1524  C1883   1.389   1_554 S
C1524  C1994   1.378   1_554 S
H1526  C4297   1.155   .     S
H1529  C1671   1.074   .     S
H1533  C4237   1.090   .     S
H1534  C4302   1.039   .     S
H1537  C1543   1.121   .     S
C1538  C1555   1.382   .     S
C1538  C1591   1.512   .     S
C1538  C1561   1.428   .     S
C1539  C1560   1.351   .     S
C1539  O1606   1.416   .     S
C1539  C1635   1.454   .     S
C1540  O1600   1.425   .     S
C1540  C1570   1.415   .     S
C1540  C1620   1.378   .     S
C1541  C1544   1.547   .     S
C1541  C1626   1.377   .     S
C1541  C1586   1.427   .     S
C1542  H1557   1.056   .     S
C1542  H1601   1.102   .     S
C1542  H1556   1.153   .     S
C1542  C1544   1.511   .     S
C1543  C1626   1.332   .     S
C1544  C1563   1.486   .     S
C1544  C1546   1.579   .     S
C1546  H1585   1.061   .     S
C1546  H1640   1.092   .     S
C1546  H1638   1.128   .     S
C1547  C1664   1.377   .     S
C1547  C1649   1.406   .     S
C1547  O1622   1.376   .     S
C1548  H1549   1.109   .     S
C1548  C1569   1.383   .     S
C1548  C1572   1.404   .     S
C1550  C1573   1.390   .     S
C1550  C1613   1.359   .     S
C1550  C1594   1.401   .     S
H1551  C1603   1.140   .     S
C1552  O1653   1.369   .     S
C1552  C1654   1.400   .     S
H1553  C1560   1.166   .     S
H1554  C1562   1.110   .     S
C1555  H1634   1.130   .     S
C1555  C1635   1.381   .     S
C1558  H4400   1.116   .     S
C1558  C1668   1.362   .     S
C1558  C1823   1.409   .     S
H1559  C1582   1.074   .     S
C1560  C1561   1.344   .     S
C1561  C1633   1.561   .     S
C1562  C1617   1.339   .     S
C1562  C1612   1.371   .     S
C1563  H1632   1.139   .     S
C1563  H1618   1.068   .     S
C1563  C1591   1.520   .     S
C1564  C1620   1.398   .     S
C1564  O1631   1.421   .     S
C1564  C1595   1.370   .     S
C1566  C1633   1.532   .     S
C1566  H1576   1.095   .     S
C1566  H1574   1.100   .     S
C1566  H1628   1.119   .     S
N1567  C3776   1.178   .     S
C1569  C1597   1.463   .     S
C1569  O1577   1.381   .     S
C1570  C1584   1.404   .     S
C1570  O1653   1.375   .     S
C1571  H1639   1.146   .     S
C1571  C1591   1.621   .     S
C1571  C1633   1.533   .     S
C1571  H1619   1.052   .     S
C1572  C1642   1.370   .     S
C1572  C1604   1.534   .     S
C1573  O4458   1.373   .     S
C1573  C1593   1.380   .     S
H1575  C1589   1.074   .     S
O1577  C1650   1.371   .     S
O1578  C1649   1.355   .     S
O1578  C1666   1.367   .     S
H1579  C1603   1.058   .     S
C1581  C3779   1.526   .     S
C1581  C1642   1.540   .     S
C1582  H1663   1.105   .     S
C1582  C7109   1.553   1_455 S
C1582  H7250   1.095   1_455 S
H1583  C1671   1.143   .     S
C1584  C1659   1.429   .     S
C1584  C1595   1.390   .     S
C1586  H1655   1.061   .     S
H1587  C1614   1.117   .     S
O1588  C4320   1.381   .     S
O1588  C1593   1.458   .     S
C1589  C1641   1.368   .     S
C1589  C1596   1.394   .     S
H1590  C1616   1.087   .     S
C1591  C1626   1.482   .     S
H1592  C1664   1.120   .     S
C1593  C1602   1.391   .     S
C1594  N1645   1.171   .     S
C1595  O1606   1.391   .     S
C1596  C1612   1.418   .     S
C1596  O1599   1.394   .     S
C1597  O4460   1.407   .     S
C1597  C1629   1.392   .     S
O1598  C1621   1.372   .     S
O1598  C1612   1.393   .     S
O1599  C1613   1.384   .     S
O1600  C1654   1.402   .     S
C1602  C1621   1.382   .     S
C1602  C1610   1.403   .     S
C1603  C1643   1.512   .     S
C1603  H1637   1.096   .     S
C1604  C1668   1.466   .     S
C1605  O1622   1.391   .     S
C1605  C1666   1.434   .     S
C1605  C1670   1.384   .     S
C1607  C1620   1.426   .     S
C1607  N1615   1.157   .     S
H1608  C1614   1.103   .     S
C1609  C2215   1.525   .     S
C1609  C1611   1.512   .     S
C1609  C1630   1.539   .     S
C1609  C1641   1.562   .     S
C1610  N1625   1.164   .     S
C1611  H1627   1.101   .     S
C1611  H1662   1.063   .     S
C1613  C1621   1.498   .     S
C1614  H1623   1.089   .     S
C1614  C1633   1.576   .     S
C1616  H2373   1.157   .     S
C1616  H1661   1.137   .     S
C1616  C1643   1.576   .     S
C1617  C1643   1.555   .     S
C1617  C1641   1.414   .     S
O1624  C1651   1.434   .     S
O1624  C7145   1.377   1_455 S
C1629  H4471   1.176   .     S
C1629  C1642   1.418   .     S
C1630  H2359   1.089   .     S
C1630  C1643   1.567   .     S
C1630  H1636   1.074   .     S
O1631  C1635   1.376   .     S
N1644  C1672   1.146   .     S
H1646  C1652   1.145   .     S
H1647  C1739   1.074   .     S
N1648  C1660   1.181   .     S
C1649  C2324   1.393   .     S
C1650  C4448   1.379   .     S
C1650  C4441   1.399   .     S
C1651  C1652   1.384   .     S
C1654  C4330   1.355   .     S
N1656  C7074   1.175   1_455 S
N1657  C1667   1.155   .     S
C1660  C7235   1.451   1_455 S
C1664  C2199   1.376   .     S
C1666  C1839   1.346   .     S
C1667  C1670   1.376   .     S
H1669  C1812   1.197   .     S
C1670  C1750   1.364   .     S
C1671  H1673   1.108   .     S
C1672  C7926   1.437   1_455 S
C1674  C1712   1.359   .     S
C1674  O1810   1.394   .     S
C1674  C1700   1.441   .     S
C1675  O1771   1.387   .     S
C1675  C1763   1.425   .     S
C1675  C1716   1.443   .     S
O1676  C1702   1.324   .     S
O1676  C1819   1.344   .     S
C1677  O1745   1.436   .     S
C1677  C1784   1.330   .     S
C1677  C1702   1.451   .     S
H1678  C1812   1.078   .     S
C1679  H1850   1.084   .     S
C1679  C1723   1.546   .     S
C1679  H1729   1.099   .     S
C1679  H1829   1.096   .     S
H1680  C1739   1.094   .     S
H1681  C1703   1.126   .     S
C1682  C1844   1.519   .     S
C1682  C1789   1.407   .     S
C1682  C1809   1.409   .     S
C1683  C1763   1.379   .     S
C1683  H1743   1.105   .     S
C1683  C1710   1.369   .     S
C1684  H1722   1.132   .     S
C1684  H1777   1.077   .     S
C1684  H1761   1.131   .     S
C1684  C1725   1.587   .     S
C1685  C1717   1.445   .     S
C1685  N1842   1.172   .     S
H1686  C1755   1.074   .     S
H1687  C1755   1.143   .     S
C1688  C1852   1.378   .     S
C1688  C1831   1.378   .     S
C1688  H1816   1.075   .     S
C1689  C1805   1.503   .     S
C1689  C1724   1.530   .     S
C1689  C1800   1.471   .     S
C1689  C1754   1.522   .     S
C1690  H1767   1.090   .     S
C1690  C1781   1.411   .     S
C1690  C1709   1.397   .     S
C1691  C2537   1.385   .     S
C1691  C2438   1.393   .     S
C1691  C1827   1.401   .     S
O1692  C1750   1.426   .     S
O1692  C1763   1.385   .     S
H1693  C1834   1.066   .     S
C1694  C1853   1.492   .     S
C1694  C1748   1.539   .     S
C1694  C1772   1.528   .     S
C1694  C1849   1.563   .     S
C1695  C1768   1.542   .     S
C1695  C1731   1.549   .     S
C1695  H1766   1.117   .     S
C1695  H1740   1.058   .     S
H1696  C1772   1.071   .     S
O1697  C1769   1.414   .     S
O1697  C1700   1.387   .     S
H1698  C1794   1.079   .     S
C1699  C1742   1.395   .     S
C1699  O1824   1.335   .     S
C1699  C7353   1.417   1_455 S
C1700  C1784   1.413   .     S
H1701  C1812   1.089   .     S
C1702  C1712   1.386   .     S
C1703  C1789   1.379   .     S
C1703  C1802   1.376   .     S
C1704  H1822   1.122   .     S
C1704  H1801   1.097   .     S
C1704  H1773   1.050   .     S
H1706  C1738   1.060   .     S
H1707  C1830   1.086   .     S
H1708  C1800   1.155   .     S
C1709  C1749   1.386   .     S
C1709  C1725   1.522   .     S
C1710  C1731   1.555   .     S
C1710  C1751   1.360   .     S
H1711  C1795   1.105   .     S
C1712  C1818   1.372   .     S
H1713  C2409   1.098   .     S
C1714  C1808   1.400   .     S
C1714  C1738   1.394   .     S
C1714  C1723   1.506   .     S
H1715  C1734   1.105   .     S
C1716  H1762   1.108   .     S
C1716  C1751   1.386   .     S
C1717  C1741   1.392   .     S
C1717  C1776   1.421   .     S
C1718  C1725   1.561   .     S
C1718  H1846   1.117   .     S
C1718  H1820   1.119   .     S
C1718  H1832   1.090   .     S
C1719  C1809   1.364   .     S
C1719  O1828   1.374   .     S
C1719  C1802   1.409   .     S
H1720  C1830   1.126   .     S
C1721  H1891   1.098   .     S
C1721  C1925   1.371   .     S
C1721  C1742   1.369   .     S
C1723  C1794   1.480   .     S
C1723  C1799   1.554   .     S
C1724  H1774   1.144   .     S
C1724  H1836   1.085   .     S
C1724  H1845   1.135   .     S
C1725  C1834   1.564   .     S
H1726  C1799   1.092   .     S
C1727  H1764   1.145   .     S
C1727  C1754   1.397   .     S
C1727  C1936   1.381   .     S
H1730  C1755   1.124   .     S
C1731  C1795   1.586   .     S
C1731  C1789   1.486   .     S
O1732  C2537   1.427   .     S
O1732  C1852   1.349   .     S
C1733  C1785   1.397   .     S
C1733  O1782   1.411   .     S
C1733  C1741   1.425   .     S
C1734  C1749   1.416   .     S
C1734  C1769   1.380   .     S
C1735  H1779   1.115   .     S
C1735  H1756   1.124   .     S
C1735  H1747   1.082   .     S
C1735  C1768   1.577   .     S
N1736  C1827   1.145   .     S
C1737  O1771   1.427   .     S
C1737  C1750   1.386   .     S
C1737  C1839   1.395   .     S
C1738  C1770   1.375   .     S
C1739  H1848   1.103   .     S
C1739  C7279   1.499   1_455 S
C1741  O1828   1.401   .     S
C1742  O1803   1.381   .     S
H1744  C1809   1.098   .     S
O1745  C1770   1.373   .     S
H1746  C1795   1.086   .     S
C1748  H1862   1.091   .     S
C1748  H1790   1.144   .     S
C1748  H1797   1.091   .     S
C1749  C1826   1.528   .     S
C1751  C1768   1.503   .     S
H1752  C1849   1.098   .     S
H1753  C1794   1.103   .     S
C1754  C2002   1.373   .     S
C1755  C1768   1.539   .     S
N1757  C1793   1.183   .     S
N1758  C1806   1.177   .     S
H1759  C1800   1.138   .     S
N1765  C1780   1.101   .     S
C1769  C1781   1.426   .     S
C1770  C1819   1.448   .     S
C1772  H1786   1.078   .     S
C1772  C1837   1.551   .     S
H1775  C1805   1.065   .     S
C1776  C1792   1.397   .     S
C1776  O1824   1.389   .     S
H1778  C1788   1.072   .     S
C1780  C1785   1.352   .     S
C1781  O1810   1.347   .     S
O1782  C1802   1.349   .     S
C1783  C1784   1.380   .     S
C1783  N1787   1.177   .     S
C1785  C1792   1.390   .     S
C1788  H2500   1.128   .     S
C1788  C2528   1.511   .     S
C1788  C1814   1.487   .     S
H1791  C4623   1.095   .     S
C1792  O1803   1.395   .     S
C1793  C4441   1.380   .     S
C1794  H1851   1.119   .     S
C1795  C1844   1.542   .     S
H1796  C1835   1.105   .     S
H1798  C1800   1.099   .     S
C1799  C1814   1.554   .     S
C1799  H1813   1.112   .     S
N1804  C1818   1.159   .     S
C1805  H1821   1.087   .     S
C1805  C1837   1.504   .     S
C1806  C1839   1.428   .     S
C1807  C4625   1.381   .     S
C1807  H1815   1.149   .     S
C1807  C1843   1.398   .     S
C1808  C1817   1.374   .     S
C1808  C1814   1.614   .     S
H1811  C1830   1.162   .     S
C1812  C1844   1.547   .     S
C1814  C1831   1.525   .     S
C1817  H1825   1.174   .     S
C1817  C1819   1.406   .     S
C1823  O4578   1.416   .     S
C1826  C1834   1.566   .     S
C1826  C1835   1.571   .     S
C1826  C1843   1.561   .     S
C1830  C1982   1.511   .     S
C1831  C2538   1.344   .     S
H1833  C7414   1.124   1_455 S
C1834  H4475   1.092   .     S
C1835  H1838   1.070   .     S
C1835  C4526   1.552   .     S
C1837  C2002   1.545   .     S
C1837  C1990   1.467   .     S
H1840  C7414   1.065   1_455 S
H1841  C1897   1.054   .     S
C1843  C4619   1.362   .     S
N1847  C2520   1.158   .     S
C1849  H4498   1.146   .     S
C1849  H4628   1.117   .     S
C1852  C2490   1.435   .     S
C1853  C1990   1.358   .     S
C1853  C4835   1.362   .     S
H1854  C1901   1.117   .     S
H1855  C1887   1.088   .     S
C1856  C1916   1.435   .     S
C1856  H1886   1.089   .     S
C1856  C1935   1.375   .     S
C1857  C1865   1.575   .     S
C1857  C1873   1.572   .     S
C1857  C1972   1.576   .     S
C1857  C1958   1.517   .     S
H1858  C4831   1.096   .     S
C1859  C1922   1.371   .     S
C1859  N1957   1.168   .     S
O1860  C1943   1.426   .     S
O1860  C1963   1.380   .     S
C1861  C1872   1.414   .     S
C1861  O1877   1.390   .     S
C1861  C1966   1.401   .     S
H1863  C4823   1.090   .     S
O1864  C4839   1.407   .     S
O1864  C1876   1.372   .     S
C1865  C1881   1.562   .     S
C1865  H1944   1.122   .     S
C1865  H1968   1.083   .     S
H1866  C1975   1.087   .     S
C1867  H1938   1.144   .     S
C1867  C1919   1.489   .     S
C1867  H1885   1.108   .     S
C1867  C1892   1.563   .     S
H1868  C1915   1.126   .     S
C1869  C1966   1.371   .     S
C1869  C1982   1.548   .     S
C1869  C1873   1.364   .     S
H1870  C1983   1.072   .     S
C1871  C1929   1.378   .     S
C1871  C1902   1.430   .     S
C1871  O1950   1.397   .     S
C1872  C1893   1.397   .     S
C1872  O1948   1.386   .     S
C1873  C1893   1.379   .     S
C1874  C1961   1.392   .     S
C1874  C1928   1.387   .     S
C1874  C1876   1.406   .     S
C1875  C1887   1.410   .     S
C1875  O1904   1.363   .     S
C1875  C1918   1.421   .     S
C1876  C1962   1.393   .     S
O1877  C1961   1.425   .     S
O1878  C1920   1.341   .     S
H1879  C1983   1.102   .     S
H1880  C1901   1.115   .     S
C1881  C1915   1.519   .     S
C1881  C1911   1.506   .     S
C1881  C1906   1.522   .     S
C1882  C1951   1.450   .     S
C1882  H1984   1.134   .     S
C1882  C1884   1.420   .     S
C1883  N2682   1.162   .     S
C1883  C1524   1.389   1_556 S
C1884  C1895   1.452   .     S
C1884  O1940   1.420   .     S
C1887  C1911   1.373   .     S
C1888  H1914   1.093   .     S
C1888  C1918   1.374   .     S
C1888  C1972   1.367   .     S
C1889  O1931   1.424   .     S
C1889  C1934   1.391   .     S
C1889  C1943   1.396   .     S
C1890  H1978   1.117   .     S
C1890  H1979   1.078   .     S
C1890  H1913   1.073   .     S
C1890  C1919   1.531   .     S
C1892  C1927   1.525   .     S
C1892  C1894   1.519   .     S
C1892  C1933   1.519   .     S
C1893  H1969   1.108   .     S
C1894  C1949   1.406   .     S
C1894  C1935   1.371   .     S
C1895  C1909   1.385   .     S
C1895  O1954   1.362   .     S
N1896  C1985   1.159   .     S
C1897  H2003   1.137   .     S
C1897  C1982   1.530   .     S
C1897  H1955   1.100   .     S
H1898  C1903   1.100   .     S
H1899  C1909   1.093   .     S
H1900  C1941   1.117   .     S
C1901  H1988   1.079   .     S
C1901  C1919   1.531   .     S
C1902  C1922   1.399   .     S
C1902  O1930   1.432   .     S
C1903  C4737   1.397   .     S
C1903  C1990   1.434   .     S
O1904  C1908   1.357   .     S
C1905  O1907   1.441   .     S
C1905  C1934   1.378   .     S
C1905  C1992   1.375   .     S
C1906  H1923   1.090   .     S
C1906  H1980   1.140   .     S
C1906  H1970   1.145   .     S
C1908  C1921   1.426   .     S
C1908  C1929   1.386   .     S
C1909  C1933   1.412   .     S
O1910  C1921   1.464   .     S
O1910  C1918   1.364   .     S
C1911  C1972   1.418   .     S
C1912  C1929   1.363   .     S
C1912  N7579   1.184   1_455 S
C1915  H1977   1.137   .     S
C1915  H1956   1.076   .     S
C1916  O1952   1.392   .     S
C1916  C1974   1.396   .     S
C1917  C1951   1.499   .     S
C1917  C1975   1.550   .     S
C1917  C1927   1.555   .     S
C1917  C1521   1.569   1_556 S
C1919  C1935   1.525   .     S
C1920  C1937   1.407   .     S
C1921  C1922   1.352   .     S
C1925  C7405   1.380   1_455 S
C1925  C7494   1.496   1_455 S
H1926  C1958   1.067   .     S
C1927  H1991   1.117   .     S
C1927  H2000   1.095   .     S
C1928  N1998   1.113   .     S
O1931  C1936   1.400   .     S
H1932  C1966   1.116   .     S
C1933  C1951   1.404   .     S
C1934  C1985   1.447   .     S
C1936  C1963   1.423   .     S
C1937  C1971   1.437   .     S
C1937  C1942   1.324   .     S
C1939  C1965   1.389   .     S
C1939  C1962   1.399   .     S
C1939  C1967   1.440   .     S
O1940  C1997   1.423   .     S
C1941  C1963   1.382   .     S
C1941  C2002   1.398   .     S
C1942  O1954   1.378   .     S
C1942  C1997   1.407   .     S
C1943  C1946   1.402   .     S
H1945  C1986   1.077   .     S
C1946  C1992   1.387   .     S
H1947  C7488   1.075   1_455 S
O1948  C1965   1.428   .     S
C1949  C1974   1.379   .     S
C1949  H1987   1.131   .     S
O1950  C2001   1.341   .     S
O1952  C1994   1.440   .     S
H1953  C2005   1.129   .     S
C1958  C1982   1.487   .     S
C1958  H1981   1.086   .     S
O1960  C4767   1.419   .     S
O1960  C1962   1.385   .     S
C1961  C1965   1.366   .     S
N1964  C7562   1.139   1_455 S
C1967  N1976   1.166   .     S
C1971  N1973   1.160   .     S
C1974  O1473   1.390   1_556 S
C1975  H1996   1.049   .     S
C1975  H1989   1.050   .     S
C1983  C4685   1.540   .     S
C1983  H1999   1.105   .     S
C1986  H1995   1.110   .     S
C1986  H2004   1.106   .     S
C1986  C7494   1.559   1_455 S
H1993  C7488   1.072   1_455 S
C1994  C1524   1.378   1_556 S
C1994  C1483   1.413   1_556 S
C2005  C7494   1.540   1_455 S
C2005  H7549   1.158   1_455 S
C2005  H7572   1.091   1_455 S
H2006  C2008   1.106   .     S
C2007  F2135   1.376   .     S
C2007  C2155   1.388   .     S
C2007  C2031   1.426   .     S
C2008  C2136   1.424   .     S
C2008  C2015   1.379   .     S
C2009  C2140   1.401   .     S
C2009  O2039   1.420   .     S
C2009  C2101   1.387   .     S
H2010  C2153   1.108   .     S
C2011  C2040   1.530   .     S
C2011  C2123   1.474   .     S
C2011  C2613   1.484   1_554 S
C2011  C2629   1.562   1_554 S
H2012  C2142   1.062   .     S
N2013  C2114   1.170   .     S
C2014  H2063   1.145   .     S
C2014  C2368   1.377   .     S
C2014  C2367   1.431   .     S
C2015  C2090   1.509   .     S
C2015  C2053   1.460   .     S
C2016  C2092   1.550   .     S
C2016  H2084   1.104   .     S
C2016  H2034   1.149   .     S
C2016  H2030   1.116   .     S
H2017  C2162   1.150   .     S
H2018  C2052   1.099   .     S
N2019  C2165   1.162   .     S
O2020  C2368   1.453   .     S
O2020  C2284   1.369   .     S
C2021  C2051   1.393   .     S
C2021  C2122   1.367   .     S
C2021  C2061   1.537   .     S
H2022  C2111   1.084   .     S
C2023  C2101   1.380   .     S
C2023  C152    1.389   1_565 S
C2023  O2657   1.386   1_554 S
C2024  C2057   1.384   .     S
C2024  C2139   1.400   .     S
C2024  O2128   1.381   .     S
C2025  H2149   1.081   .     S
C2025  H2171   1.039   .     S
C2025  H2068   1.128   .     S
C2025  C2610   1.478   1_554 S
H2026  C2131   1.063   .     S
C2027  H2035   1.108   .     S
C2027  H2088   1.104   .     S
C2027  C2061   1.543   .     S
C2027  C2152   1.522   .     S
C2028  C2102   1.524   .     S
C2028  C2052   1.515   .     S
C2028  C2153   1.501   .     S
C2028  C2053   1.503   .     S
C2029  C2112   1.407   .     S
C2029  C2083   1.366   .     S
C2029  O2095   1.390   .     S
C2031  F2099   1.376   .     S
C2031  C15     1.366   1_565 S
H2032  C2153   1.082   .     S
O2033  C2081   1.407   .     S
O2033  C2077   1.355   .     S
H2036  C2052   1.046   .     S
H2037  C2129   1.155   .     S
C2038  C2108   1.408   .     S
C2038  C7598   1.340   1_455 S
C2038  C7697   1.520   1_455 S
O2039  C2066   1.355   .     S
C2040  H2166   1.127   .     S
C2040  H2157   1.084   .     S
C2040  H2042   1.090   .     S
C2041  H2117   1.057   .     S
C2041  C5038   1.505   .     S
C2041  H2085   1.110   .     S
C2041  C4940   1.554   .     S
H2043  C2151   1.151   .     S
C2044  C2120   1.416   .     S
C2044  O2095   1.385   .     S
C2044  C7695   1.428   1_455 S
H2045  C2148   1.116   .     S
C2046  C2054   1.450   .     S
C2046  C2146   1.386   .     S
C2046  O2047   1.377   .     S
O2047  C2055   1.406   .     S
C2048  C2094   1.406   .     S
C2048  N2087   1.153   .     S
C2049  C2169   1.360   .     S
C2049  C2104   1.380   .     S
H2050  C2119   1.093   .     S
C2051  C2152   1.529   .     S
C2051  C2146   1.390   .     S
C2052  H2133   1.145   .     S
C2053  C2148   1.376   .     S
C2054  O2079   1.362   .     S
C2054  C2122   1.384   .     S
C2055  C2065   1.390   .     S
C2055  C2082   1.388   .     S
N2056  C2115   1.158   .     S
C2057  H2059   1.145   .     S
C2057  C117    1.393   1_565 S
O2058  C2134   1.396   .     S
O2058  C24     1.363   1_565 S
H2060  C2125   1.045   .     S
C2061  C2123   1.556   .     S
C2061  C2614   1.491   1_554 S
C2062  C2071   1.411   .     S
C2062  C2065   1.383   .     S
C2062  C2132   1.362   .     S
N2064  C2075   1.163   .     S
C2065  O2079   1.389   .     S
C2066  C2093   1.401   .     S
C2066  C2119   1.406   .     S
N2067  C2071   1.152   .     S
C2069  C2112   1.372   .     S
C2069  C2110   1.381   .     S
C2069  H2366   1.118   .     S
C2070  C2104   1.384   .     S
C2070  O2073   1.372   .     S
C2070  C2074   1.386   .     S
C2072  C2074   1.395   .     S
O2073  C2144   1.347   .     S
C2074  C2115   1.379   .     S
C2075  C2082   1.390   .     S
O2076  C2136   1.406   .     S
O2076  C2104   1.404   .     S
C2077  C2124   1.425   .     S
C2077  C2131   1.371   .     S
H2078  C2102   1.114   .     S
H2080  C2102   1.105   .     S
C2081  C2145   1.393   .     S
C2081  C2094   1.398   .     S
C2082  C2137   1.390   .     S
C2083  H2091   1.082   .     S
C2083  C2130   1.367   .     S
H2086  C2111   1.135   .     S
O2089  C2093   1.356   .     S
O2089  C2140   1.398   .     S
C2090  C2142   1.490   .     S
C2090  C2108   1.547   .     S
C2090  C2153   1.589   .     S
C2092  C2129   1.461   .     S
C2092  C2130   1.468   .     S
C2092  C2151   1.528   .     S
C2093  C2164   1.385   .     S
C2094  C92     1.372   1_565 S
C2096  C2103   1.498   .     S
C2096  C21     1.407   1_565 S
C2096  C267    1.392   1_565 S
H2097  C2147   1.076   .     S
H2098  C2142   1.072   .     S
H2100  C2125   1.074   .     S
C2101  C2165   1.363   .     S
C2102  H2121   1.098   .     S
C2103  C2110   1.539   .     S
C2103  C2129   1.556   .     S
C2103  C2291   1.543   .     S
H2105  C5030   1.095   .     S
C2106  C2119   1.372   .     S
C2106  C2116   1.370   .     S
C2106  C2107   1.509   .     S
C2107  C4939   1.511   .     S
C2107  C2111   1.542   .     S
C2107  C2125   1.504   .     S
C2108  C2131   1.337   .     S
O2109  C2132   1.407   .     S
O2109  C2139   1.374   .     S
C2110  C2130   1.432   .     S
C2111  H2143   1.084   .     S
C2112  O2374   1.378   .     S
H2113  C2147   1.108   .     S
C2114  C2155   1.417   .     S
C2116  C4940   1.514   .     S
C2116  C2164   1.416   .     S
H2118  C2146   1.139   .     S
C2120  O2374   1.385   .     S
C2120  C7935   1.406   1_455 S
C2122  H2141   1.075   .     S
C2123  H2167   1.171   .     S
C2123  H2150   1.104   .     S
C2124  O2160   1.347   .     S
C2124  C7598   1.397   1_455 S
C2125  H2154   1.082   .     S
H2126  C2129   1.101   .     S
N2127  C2163   1.196   .     S
O2128  C2137   1.391   .     S
C2132  C2137   1.400   .     S
C2134  C2159   1.421   .     S
C2134  C2643   1.403   1_554 S
C2136  C2144   1.360   .     S
H2138  C186    1.112   1_565 S
C2139  C48     1.374   1_565 S
C2140  C73     1.374   1_565 S
C2142  C7697   1.571   1_455 S
C2144  C2148   1.400   .     S
C2145  O2160   1.410   .     S
C2145  C182    1.420   1_565 S
C2147  C2152   1.530   .     S
C2147  H2170   1.129   .     S
C2151  H2156   1.112   .     S
C2151  H2377   1.083   .     S
C2152  C2162   1.522   .     S
C2155  C25     1.371   1_565 S
H2158  C2162   1.104   .     S
C2159  O7712   1.373   1_455 S
C2159  C7751   1.394   1_455 S
H2161  C5025   1.114   .     S
C2163  C2310   1.422   .     S
C2164  H5008   1.101   .     S
C2168  C2610   1.545   1_554 S
C2168  C2641   1.393   1_554 S
C2168  C7751   1.396   1_455 S
C2172  C2274   1.397   .     S
C2172  C2547   1.384   .     S
C2172  C2251   1.395   .     S
C2173  H2258   1.124   .     S
C2173  C2207   1.384   .     S
C2173  C2200   1.385   .     S
C2174  C2336   1.397   .     S
C2174  H2177   1.103   .     S
C2174  C7812   1.390   1_455 S
H2175  C2380   1.084   .     S
C2176  H2278   1.054   .     S
C2176  H2304   1.124   .     S
C2176  H2262   1.114   .     S
C2176  C2309   1.474   .     S
O2178  C2225   1.388   .     S
O2178  C2316   1.371   .     S
H2179  C2301   1.097   .     S
H2180  C2205   1.114   .     S
H2181  C2197   1.057   .     S
H2182  C2324   1.073   .     S
C2183  C2289   1.388   .     S
C2183  C2322   1.427   .     S
C2183  O2297   1.352   .     S
H2184  C2361   1.160   .     S
C2185  H2381   1.086   .     S
C2185  H2351   1.097   .     S
C2185  C225    1.552   1_565 S
C2185  C185    1.505   1_565 S
H2186  C2287   1.086   .     S
H2187  C2357   1.132   .     S
C2188  C2204   1.535   .     S
C2188  H2269   1.046   .     S
C2188  C2354   1.504   .     S
C2188  H2255   1.161   .     S
C2189  C2202   1.439   .     S
C2189  O2228   1.444   .     S
C2189  C2276   1.380   .     S
H2190  C2295   1.116   .     S
H2191  C2287   1.145   .     S
H2192  C2197   1.132   .     S
C2193  H2219   1.142   .     S
C2193  C2344   1.527   .     S
C2193  C2204   1.571   .     S
C2193  H2217   1.094   .     S
H2194  C2226   1.123   .     S
C2195  C2355   1.358   .     S
C2195  C2325   1.432   .     S
C2195  C2354   1.582   .     S
N2196  C2280   1.132   .     S
C2197  C2317   1.550   .     S
C2197  C2313   1.529   .     S
H2198  C2210   1.176   .     S
C2199  C2346   1.346   .     S
C2199  C2344   1.556   .     S
C2200  O2245   1.438   .     S
C2200  C2214   1.413   .     S
C2201  H2235   1.133   .     S
C2201  C2268   1.339   .     S
C2201  C2285   1.416   .     S
C2202  C2283   1.385   .     S
C2202  O2328   1.473   .     S
O2203  C2282   1.401   .     S
O2203  C2378   1.380   .     S
C2204  C2346   1.559   .     S
C2204  C2325   1.471   .     S
C2205  H2333   1.093   .     S
C2205  C2313   1.512   .     S
C2205  H2337   1.054   .     S
H2206  C2237   1.111   .     S
C2207  C2224   1.427   .     S
C2207  C2313   1.523   .     S
C2208  C2322   1.400   .     S
C2208  C2242   1.588   .     S
C2208  C2233   1.363   .     S
H2209  C2211   1.115   .     S
C2210  C2344   1.512   .     S
C2210  H2376   1.106   .     S
C2210  H2257   1.138   .     S
C2211  H2246   1.110   .     S
C2211  H2320   1.114   .     S
C2211  C2261   1.482   .     S
C2212  C2222   1.398   .     S
C2212  C2323   1.388   .     S
C2212  H2232   1.116   .     S
C2213  C2506   1.340   .     S
C2213  C2339   1.437   .     S
C2213  O2244   1.399   .     S
C2214  O2250   1.356   .     S
C2214  C2350   1.396   .     S
C2215  C2292   1.395   .     S
C2215  C2367   1.411   .     S
C2216  C5078   1.365   .     S
C2216  C2302   1.428   .     S
C2216  C2305   1.363   .     S
N2218  C2251   1.146   .     S
H2220  C2230   1.061   .     S
H2221  C2256   1.174   .     S
C2222  O2277   1.402   .     S
C2222  C2282   1.428   .     S
C2223  C2360   1.558   .     S
C2223  C2287   1.557   .     S
C2223  C2247   1.498   .     S
C2223  C2301   1.479   .     S
C2224  C2317   1.525   .     S
C2224  C2350   1.404   .     S
C2225  C2292   1.398   .     S
C2225  C2368   1.404   .     S
C2226  C2293   1.564   .     S
C2226  H2342   1.085   .     S
C2226  H352    1.117   1_565 S
H2227  C2361   1.061   .     S
O2228  C2308   1.427   .     S
H2229  C2249   1.120   .     S
C2230  C2239   1.529   .     S
C2230  H2290   1.085   .     S
C2230  C2309   1.556   .     S
C2231  C2263   1.403   .     S
C2231  C2275   1.375   .     S
C2231  O5236   1.398   .     S
C2233  C2261   1.508   .     S
C2233  C2300   1.423   .     S
O2234  C2289   1.366   .     S
O2234  C2288   1.396   .     S
O2236  C2274   1.376   .     S
O2236  C2347   1.435   .     S
C2237  H2299   1.108   .     S
C2237  H2312   1.143   .     S
C2237  C2309   1.509   .     S
C2238  H2294   1.059   .     S
C2238  C2282   1.383   .     S
C2238  C2247   1.365   .     S
C2239  C2301   1.512   .     S
C2239  C2323   1.528   .     S
C2239  C2296   1.576   .     S
H2240  C2353   1.034   .     S
H2241  C2291   1.115   .     S
C2242  C2248   1.544   .     S
C2242  C2267   1.514   .     S
C2242  C2353   1.541   .     S
C2243  C2275   1.407   .     S
C2243  C2288   1.403   .     S
C2243  C2280   1.350   .     S
O2244  C2286   1.361   .     S
O2245  C2370   1.386   .     S
C2247  C2323   1.426   .     S
C2248  C2270   1.374   .     S
C2248  C2358   1.387   .     S
C2249  C2296   1.376   .     S
C2249  C2286   1.471   .     S
O2250  C2372   1.413   .     S
H2252  C2360   1.114   .     S
H2253  C2270   1.125   .     S
H2254  C2283   1.082   .     S
C2256  H2343   1.107   .     S
C2256  H2329   1.133   .     S
C2256  C2313   1.540   .     S
C2259  O2297   1.428   .     S
C2259  C2263   1.401   .     S
C2259  C2288   1.371   .     S
H2260  C2380   1.183   .     S
C2261  C2353   1.503   .     S
C2261  C2295   1.565   .     S
C2263  C2455   1.365   .     S
C2264  H2327   1.060   .     S
C2264  H2349   1.098   .     S
C2264  C2354   1.487   .     S
C2264  H2315   1.132   .     S
H2265  C2295   1.090   .     S
C2266  C2358   1.349   .     S
C2266  C2331   1.379   .     S
C2266  H380    1.111   1_565 S
C2267  H2369   1.087   .     S
C2267  H2356   1.107   .     S
C2267  C348    1.536   1_565 S
C2268  C2309   1.551   .     S
C2268  C2296   1.401   .     S
C2270  C2347   1.398   .     S
H2271  C2322   1.157   .     S
C2272  C2276   1.406   .     S
C2272  C2326   1.390   .     S
C2272  C185    1.478   1_565 S
O2273  C2285   1.385   .     S
O2273  C2339   1.435   .     S
C2274  C2544   1.410   .     S
C2275  O5182   1.408   .     S
C2276  H2279   1.142   .     S
O2277  C2302   1.385   .     S
C2281  C2308   1.383   .     S
C2281  O2328   1.436   .     S
C2281  C2310   1.396   .     S
C2283  C2326   1.346   .     S
C2284  C2316   1.428   .     S
C2284  C2310   1.403   .     S
C2285  C2286   1.399   .     S
C2287  H2311   1.125   .     S
C2289  C2300   1.366   .     S
C2291  C2293   1.550   .     S
C2291  H2334   1.073   .     S
C2292  H2345   1.122   .     S
C2293  C2361   1.576   .     S
C2293  C267    1.517   1_565 S
C2295  H2306   1.117   .     S
N2298  C2305   1.182   .     S
C2300  H2303   1.131   .     S
C2301  H2362   1.109   .     S
C2302  C2378   1.416   .     S
H2307  C186    1.147   1_565 S
C2308  C2318   1.410   .     S
C2314  C2318   1.409   .     S
C2314  N2319   1.149   .     S
C2316  C2318   1.432   .     S
C2317  C2336   1.528   .     S
C2317  C7932   1.586   1_455 S
H2321  C2360   1.122   .     S
C2324  C2346   1.399   .     S
C2325  C2507   1.383   .     S
C2326  C2365   1.592   .     S
H2330  C2357   1.049   .     S
C2331  C2347   1.417   .     S
C2331  O2470   1.373   .     S
H2332  C7782   1.163   1_455 S
H2335  C2353   1.175   .     S
C2336  C7891   1.391   1_455 S
H2338  C2340   1.114   .     S
C2339  C2426   1.405   .     S
C2340  H2348   1.104   .     S
C2340  H2364   1.126   .     S
C2340  C2344   1.522   .     S
H2341  C2357   1.117   .     S
C2350  H2371   1.100   .     S
H2352  C2360   1.132   .     S
C2354  C2357   1.512   .     S
C2355  H2363   1.143   .     S
C2355  C2511   1.378   .     S
C2358  C348    1.512   1_565 S
C2361  H330    1.062   1_565 S
C2365  C5172   1.532   .     S
C2365  C219    1.539   1_565 S
C2365  C3066   1.531   1_565 S
C2370  C2372   1.412   .     S
C2370  C275    1.426   1_565 S
C2372  C204    1.413   1_565 S
H2375  C7782   1.069   1_455 S
C2378  C5072   1.396   .     S
H2379  C7932   1.077   1_455 S
C2380  H238    1.133   1_565 S
C2380  C225    1.604   1_565 S
C2382  N362    1.152   1_565 S
C2382  C7935   1.388   1_455 S
C2383  H2509   1.116   .     S
C2383  C2476   1.541   .     S
C2383  H2399   1.105   .     S
C2383  H2536   1.074   .     S
C2384  C2389   1.568   .     S
C2384  C2493   1.522   .     S
C2384  C2422   1.593   .     S
C2384  C2523   1.538   .     S
H2385  C2461   1.120   .     S
C2386  O2408   1.436   .     S
C2386  C2505   1.411   .     S
C2386  C2429   1.388   .     S
C2387  C2529   1.399   .     S
C2387  O2471   1.386   .     S
C2387  C2525   1.388   .     S
C2388  C2463   1.399   .     S
C2388  C2475   1.348   .     S
C2388  C2544   1.405   .     S
C2389  C2403   1.513   .     S
C2389  H2442   1.103   .     S
C2389  H2479   1.081   .     S
C2390  C2438   1.379   .     S
C2390  O2406   1.356   .     S
C2390  C2467   1.463   .     S
C2391  C2448   1.406   .     S
C2391  C2508   1.372   .     S
C2391  C2476   1.549   .     S
N2392  C2433   1.158   .     S
H2393  C2574   1.119   .     S
O2394  C2491   1.375   .     S
O2394  C2428   1.417   .     S
H2395  C2422   1.093   .     S
H2396  C2437   1.086   .     S
O2397  C2419   1.392   .     S
O2397  C423    1.358   1_565 S
H2398  C2450   1.134   .     S
C2400  C2469   1.473   .     S
C2400  C2498   1.541   .     S
C2400  C2460   1.398   .     S
C2401  C2523   1.426   .     S
C2401  H2424   1.144   .     S
C2401  C2495   1.358   .     S
C2402  O2483   1.439   .     S
C2402  C2689   1.412   .     S
C2402  C2496   1.400   .     S
C2403  C2427   1.571   .     S
C2403  C2407   1.533   .     S
C2403  C424    1.522   1_565 S
C2404  C2428   1.446   .     S
C2404  C2506   1.407   .     S
C2404  O2451   1.412   .     S
N2405  C2494   1.165   .     S
O2406  C2444   1.428   .     S
C2407  H2527   1.126   .     S
C2407  H2492   1.079   .     S
C2407  C2411   1.549   .     S
O2408  C2468   1.360   .     S
C2409  C2499   1.374   .     S
C2409  C2522   1.368   .     S
H2410  C2478   1.151   .     S
C2411  C2481   1.459   .     S
C2411  C2464   1.574   .     S
C2411  C429    1.536   1_565 S
C2412  C2491   1.421   .     S
C2412  O2451   1.368   .     S
C2412  C2461   1.398   .     S
C2413  C2511   1.407   .     S
C2413  O2431   1.350   .     S
C2413  C2507   1.390   .     S
F2414  C2515   1.363   .     S
H2415  C2502   1.097   .     S
H2416  C2450   1.055   .     S
C2417  C2515   1.405   .     S
C2417  C2486   1.461   .     S
C2417  C2529   1.358   .     S
N2418  C2455   1.148   .     S
C2419  C2496   1.356   .     S
C2419  C2540   1.473   .     S
H2420  O2421   0.995   .     S
O2421  C427    1.447   1_565 S
C2422  H2441   1.097   .     S
C2422  H2462   1.128   .     S
H2423  C2453   1.064   .     S
H2425  C2530   1.144   .     S
C2426  C2428   1.387   .     S
C2426  C2440   1.338   .     S
C2427  C2523   1.389   .     S
C2427  C2526   1.386   .     S
C2429  C2513   1.378   .     S
C2429  C2465   1.402   .     S
C2430  C2467   1.389   .     S
C2430  C2537   1.411   .     S
C2430  O2519   1.426   .     S
O2431  C2529   1.406   .     S
H2432  C2507   1.124   .     S
C2433  C2467   1.424   .     S
H2434  C2493   1.085   .     S
C2435  C2541   1.381   .     S
C2435  H2456   1.135   .     S
C2435  C427    1.363   1_565 S
C2436  N2521   1.186   .     S
C2436  C2496   1.418   .     S
C2437  C2528   1.527   .     S
C2437  H2474   1.089   .     S
C2437  H2449   1.079   .     S
C2438  O2443   1.408   .     S
O2439  C2693   1.405   .     S
O2439  C2501   1.439   .     S
C2440  N2542   1.159   .     S
O2443  C2499   1.384   .     S
C2444  C2516   1.370   .     S
C2444  C2499   1.415   .     S
H2445  C2448   1.136   .     S
C2446  C2525   1.369   .     S
C2446  C2515   1.422   .     S
C2446  F2480   1.384   .     S
H2447  C2669   1.136   .     S
C2448  C2491   1.424   .     S
C2450  H2458   1.107   .     S
C2450  C2472   1.553   .     S
N2452  C2513   1.136   .     S
C2453  H2459   1.094   .     S
C2453  C5511   1.503   .     S
C2453  H2477   1.121   .     S
C2454  C2538   1.356   .     S
C2454  C2490   1.421   .     S
C2454  H2514   1.071   .     S
H2457  C2531   1.076   .     S
C2460  C2543   1.402   .     S
C2460  H2524   1.112   .     S
C2461  C2508   1.350   .     S
C2463  C2547   1.405   .     S
C2463  F8094   1.407   1_455 S
C2464  H2534   1.069   .     S
C2464  H440    1.162   1_565 S
C2464  H411    1.147   1_565 S
C2465  O2665   1.377   .     S
C2465  C2501   1.342   .     S
H2466  C2481   1.138   .     S
C2468  C2526   1.405   .     S
C2468  C2495   1.374   .     S
C2469  C2530   1.364   .     S
C2469  C2472   1.516   .     S
O2470  C2544   1.395   .     S
O2471  C2511   1.398   .     S
C2472  C2478   1.520   .     S
C2472  C2531   1.544   .     S
N2473  C2486   1.168   .     S
C2475  N379    1.147   1_565 S
C2476  C5320   1.521   .     S
C2476  C5327   1.515   .     S
C2478  H2518   1.064   .     S
C2478  H8105   1.086   1_455 S
C2481  H2510   1.142   .     S
C2481  H2539   1.104   .     S
H2482  C2516   1.152   .     S
O2483  C2592   1.423   .     S
C2484  C5334   1.507   .     S
C2484  C2522   1.384   .     S
C2484  C2516   1.385   .     S
H2485  C2493   1.085   .     S
C2487  C2505   1.354   .     S
C2487  C2504   1.402   .     S
C2487  C2501   1.396   .     S
N2488  C2504   1.132   .     S
O2489  C2495   1.340   .     S
O2489  C2505   1.404   .     S
C2490  O2519   1.359   .     S
C2493  H2535   1.107   .     S
C2494  C2525   1.386   .     S
H2497  C5318   1.080   .     S
C2498  C2531   1.535   .     S
C2498  C2532   1.557   .     S
C2498  C2541   1.518   .     S
C2502  H2517   1.067   .     S
C2502  H2533   1.069   .     S
C2502  C2528   1.463   .     S
H2503  C2526   1.117   .     S
C2506  C2520   1.434   .     S
C2508  C5334   1.488   .     S
H2512  C2531   1.091   .     S
C2522  C5293   1.587   .     S
C2528  C2538   1.523   .     S
C2530  C8101   1.370   1_455 S
C2532  H431    1.121   1_565 S
C2532  C5945   1.511   1_465 S
C2532  H8078   1.085   1_455 S
C2540  C2663   1.388   .     S
C2540  O490    1.372   1_565 S
C2541  C376    1.389   1_565 S
C2543  O8086   1.355   1_455 S
C2543  C8101   1.441   1_455 S
H2545  C5320   1.140   .     S
H2546  C2664   1.117   .     S
C2547  F7873   1.309   1_455 S
H2548  C2608   1.075   .     S
O2549  C2552   1.446   .     S
O2549  C2587   1.431   .     S
O2550  C2654   1.355   .     S
O2550  C2553   1.360   .     S
C2551  C2553   1.434   .     S
C2551  C2649   1.458   .     S
C2551  C2552   1.393   .     S
C2552  C2567   1.409   .     S
C2553  C2579   1.403   .     S
C2554  C2599   1.366   .     S
C2554  O2625   1.399   .     S
C2554  C2692   1.439   .     S
H2555  C2608   1.107   .     S
O2556  C2596   1.387   .     S
O2556  C2689   1.363   .     S
C2557  C2646   1.512   .     S
C2557  C2635   1.412   .     S
C2557  C2668   1.409   .     S
H2558  C2672   1.064   .     S
C2559  C2591   1.494   .     S
C2559  C2672   1.549   .     S
C2559  C2574   1.550   .     S
C2559  C2589   1.532   .     S
C2560  O2582   1.378   .     S
C2560  C2639   1.391   .     S
C2560  C2654   1.401   .     S
H2561  C2598   1.146   .     S
C2562  H2631   1.171   .     S
C2562  C2593   1.400   .     S
C2562  C2596   1.390   .     S
H2563  C2621   1.144   .     S
H2564  C2575   1.067   .     S
C2565  C2587   1.378   .     S
C2565  C2572   1.348   .     S
C2565  O2570   1.381   .     S
C2566  C2630   1.392   .     S
C2566  C2606   1.440   .     S
C2566  C2632   1.383   .     S
C2567  O2570   1.397   .     S
C2567  C2577   1.345   .     S
H2568  C2629   1.157   .     S
C2569  C2681   1.364   .     S
C2569  C2685   1.425   .     S
C2569  C701    1.349   1_565 S
O2571  C2680   1.416   .     S
O2571  C2681   1.391   .     S
C2572  H2586   1.064   .     S
C2572  C2613   1.381   .     S
H2573  C2658   1.060   .     S
C2574  H2645   1.083   .     S
C2574  H2684   1.125   .     S
C2575  H5504   1.136   .     S
C2575  H2677   1.171   .     S
C2575  C5508   1.539   .     S
O2576  C5481   1.396   .     S
O2576  C2606   1.382   .     S
C2577  C2579   1.377   .     S
C2577  C2580   1.399   .     S
H2578  C2648   1.084   .     S
C2579  O2582   1.376   .     S
C2580  N2581   1.150   .     S
H2583  C2589   1.059   .     S
C2584  C2672   1.517   .     S
C2584  C2585   1.564   .     S
C2584  C2650   1.522   .     S
C2584  C2652   1.508   .     S
C2585  C2669   1.396   .     S
C2585  C2593   1.374   .     S
C2587  C2590   1.398   .     S
C2588  C2633   1.496   .     S
C2588  C2666   1.558   .     S
C2588  C2602   1.519   .     S
C2588  C2641   1.603   .     S
C2589  H2597   1.134   .     S
C2589  H2620   1.140   .     S
C2590  H2644   1.107   .     S
C2590  C2614   1.423   .     S
C2591  C2650   1.420   .     S
C2591  C2664   1.427   .     S
C2592  C2669   1.407   .     S
C2592  C2596   1.413   .     S
C2593  C2609   1.509   .     S
H2594  C585    1.082   1_565 S
H2595  C2666   1.040   .     S
C2598  H2694   1.069   .     S
C2598  C5508   1.521   .     S
C2598  C5430   1.566   .     S
C2599  H2616   1.111   .     S
C2599  C2623   1.392   .     S
H2600  C2601   1.082   .     S
C2601  H2655   1.138   .     S
C2601  C2622   1.554   .     S
C2601  H2662   1.086   .     S
C2602  C2690   1.356   .     S
C2602  C2623   1.421   .     S
C2603  C2663   1.404   .     S
C2603  N640    1.154   1_565 S
H2604  C2660   1.069   .     S
C2605  H2638   1.155   .     S
C2605  H2674   1.127   .     S
C2605  C2622   1.503   .     S
C2605  H2675   1.075   .     S
C2606  C2685   1.420   .     S
C2607  O2665   1.368   .     S
C2607  C2693   1.467   .     S
C2607  C2670   1.374   .     S
C2608  C2609   1.543   .     S
C2608  H2673   1.063   .     S
C2609  C2652   1.515   .     S
C2609  C2621   1.539   .     S
C2610  C2633   1.569   .     S
C2610  C2168   1.545   1_556 S
C2610  C2025   1.478   1_556 S
C2610  C8129   1.507   1_455 S
H2611  C2668   1.104   .     S
N2612  C2649   1.169   .     S
C2613  C2614   1.411   .     S
C2613  C2011   1.484   1_556 S
C2614  C2061   1.491   1_556 S
H2615  C2621   1.137   .     S
C2617  C2680   1.348   .     S
C2617  H2683   1.077   .     S
C2617  C5490   1.348   .     S
H2618  C2633   1.086   .     S
N2619  C2632   1.147   .     S
C2621  H2661   1.114   .     S
C2622  C2623   1.519   .     S
C2622  C2666   1.503   .     S
C2624  H2637   1.081   .     S
C2624  H2640   1.098   .     S
C2624  C2646   1.511   .     S
C2624  H2656   1.083   .     S
O2625  C732    1.400   1_565 S
H2626  C2666   1.110   .     S
H2627  C2643   1.063   .     S
H2628  C2652   1.116   .     S
C2629  H5509   1.117   .     S
C2629  H2688   1.092   .     S
C2629  C2011   1.562   1_556 S
C2630  C2681   1.411   .     S
C2630  O2676   1.408   .     S
C2633  H2686   1.102   .     S
C2634  C2648   1.514   .     S
C2634  C2687   1.493   .     S
C2634  C2635   1.520   .     S
C2634  C2658   1.542   .     S
C2635  C2639   1.379   .     S
H2636  C2648   1.128   .     S
C2639  H2667   1.099   .     S
C2641  C2643   1.375   .     S
C2641  C2168   1.393   1_556 S
H2642  C2658   1.099   .     S
C2643  C2134   1.403   1_556 S
C2646  C2648   1.473   .     S
C2646  C2660   1.522   .     S
H2647  C2660   1.099   .     S
C2650  C2670   1.413   .     S
H2651  C557    1.094   1_565 S
C2652  H2653   1.085   .     S
C2654  C2668   1.419   .     S
O2657  C728    1.382   1_565 S
O2657  C2023   1.386   1_556 S
C2658  C733    1.511   1_565 S
H2659  C2660   1.063   .     S
C2663  C2689   1.382   .     S
C2664  C2693   1.368   .     S
C2670  H2671   1.130   .     S
C2672  H2691   1.148   .     S
O2676  C2678   1.418   .     S
C2678  C2680   1.441   .     S
C2678  C2679   1.407   .     S
C2679  H5406   1.116   .     S
C2679  C5340   1.376   .     S
C2685  O3347   1.430   1_565 S
C2687  C657    1.412   1_565 S
C2687  C557    1.370   1_565 S
C2690  C2692   1.393   .     S
C2690  H8270   1.070   1_455 S
C2692  O8184   1.365   1_455 S
C2695  H2717   1.085   .     S
C2695  C2699   1.538   .     S
C2695  H2777   1.068   .     S
C2695  C4934   1.495   1_545 S
C2696  O2697   1.421   .     S
C2696  C2817   1.389   .     S
C2696  C2701   1.370   .     S
O2697  C2755   1.413   .     S
H2698  C2827   1.049   .     S
C2699  C2772   1.569   .     S
C2699  C2719   1.530   .     S
C2699  C3332   1.580   1_554 S
H2700  C3507   1.110   .     S
C2701  C2786   1.359   .     S
C2701  C2757   1.391   .     S
H2702  C2789   1.118   .     S
O2703  C2710   1.337   .     S
O2703  C2802   1.383   .     S
C2704  H3525   1.153   .     S
C2704  C3583   1.400   .     S
C2704  C2839   1.420   .     S
H2705  C2754   1.090   .     S
C2706  C2856   1.368   .     S
C2706  C2726   1.374   .     S
C2706  H2840   1.125   .     S
H2707  C2820   1.082   .     S
H2708  C2752   1.113   .     S
H2709  C2771   1.169   .     S
C2710  C2861   1.408   .     S
C2710  C2856   1.484   .     S
C2711  C2790   1.383   .     S
C2711  H2829   1.087   .     S
C2711  C2843   1.378   .     S
H2712  C2820   1.148   .     S
C2713  N5569   1.159   .     S
C2713  C2773   1.455   .     S
H2714  C2763   1.126   .     S
C2715  C2868   1.396   .     S
C2715  C2860   1.358   .     S
C2716  H2797   1.140   .     S
C2716  C2854   1.376   .     S
C2716  C2762   1.395   .     S
O2718  C2738   1.415   .     S
O2718  C3428   1.412   1_554 S
C2719  H2874   1.109   .     S
C2719  H2747   1.094   .     S
C2719  H2720   1.133   .     S
H2721  C2758   1.102   .     S
H2722  C2752   1.094   .     S
H2723  C2763   1.117   .     S
C2724  C2850   1.355   .     S
C2724  C2876   1.389   .     S
C2724  C4947   1.589   1_545 S
C2725  H2787   1.087   .     S
C2725  H2849   1.114   .     S
C2725  C3467   1.543   .     S
C2725  H2859   1.105   .     S
C2726  C2756   1.514   .     S
C2726  C2801   1.418   .     S
C2727  C2825   1.395   .     S
C2727  C2837   1.437   .     S
C2727  O2865   1.380   .     S
H2728  C2758   1.076   .     S
C2729  H2864   1.065   .     S
C2729  H2878   1.121   .     S
C2729  C3546   1.557   .     S
C2729  H2871   1.117   .     S
H2730  C2850   1.082   .     S
H2731  C2809   1.067   .     S
H2732  C2752   1.074   .     S
H2733  C2862   1.101   .     S
C2734  H2828   1.089   .     S
C2734  H2867   1.077   .     S
C2734  C2737   1.532   .     S
C2734  H2751   1.147   .     S
H2735  C2816   1.104   .     S
C2736  C2811   1.391   .     S
C2736  C2825   1.410   .     S
C2736  C2802   1.396   .     S
C2737  C2752   1.523   .     S
C2737  C2759   1.537   .     S
C2737  C2863   1.506   .     S
C2738  C2740   1.435   .     S
C2738  C2739   1.405   .     S
C2739  O2782   1.380   .     S
C2739  C2743   1.359   .     S
C2740  H2852   1.135   .     S
C2740  C2741   1.363   .     S
C2741  C2788   1.520   .     S
C2741  C2744   1.387   .     S
N2742  C2769   1.133   .     S
C2743  C2744   1.345   .     S
C2743  H2745   1.160   .     S
C2744  C2749   1.505   .     S
H2746  C2862   1.146   .     S
H2748  C2759   1.083   .     S
C2749  C2816   1.565   .     S
C2749  C2800   1.515   .     S
C2749  C2820   1.511   .     S
N2750  C2811   1.166   .     S
C2753  N2819   1.168   .     S
C2753  C2872   1.418   .     S
C2754  C2846   1.458   .     S
C2754  C2788   1.524   .     S
C2754  H2823   1.123   .     S
C2755  C2839   1.442   .     S
C2755  C2827   1.377   .     S
C2756  C2774   1.524   .     S
C2756  C2833   1.555   .     S
C2756  C2831   1.564   .     S
C2757  C2835   1.410   .     S
C2757  O2794   1.404   .     S
C2758  H2845   1.107   .     S
C2758  C2826   1.532   .     S
C2759  H2838   1.057   .     S
C2759  C2761   1.539   .     S
H2760  C2783   1.127   .     S
C2761  C2832   1.531   .     S
C2761  C2842   1.522   .     S
C2761  C2809   1.513   .     S
C2762  C2790   1.396   .     S
C2763  C2821   1.588   .     S
C2763  H2807   1.113   .     S
C2764  C2793   1.393   .     S
C2764  O2865   1.374   .     S
C2765  C2799   1.413   .     S
C2765  O2780   1.360   .     S
C2765  C5636   1.386   .     S
H2766  C2789   1.169   .     S
N2767  C3624   1.168   .     S
H2768  C2861   1.144   .     S
C2769  C2804   1.358   .     S
H2770  C2831   1.105   .     S
C2771  H2784   1.110   .     S
C2771  C2826   1.553   .     S
C2771  H2834   1.096   .     S
C2772  H2824   1.124   .     S
C2772  H2847   1.074   .     S
C2772  H4976   1.122   1_545 S
C2773  C2817   1.388   .     S
C2773  C2835   1.372   .     S
C2774  H2813   1.091   .     S
C2774  H2848   1.086   .     S
C2774  C2821   1.527   .     S
O2775  C3539   1.422   .     S
H2776  C2781   1.075   .     S
O2778  C3647   1.393   .     S
O2778  C2964   1.423   .     S
H2779  C2800   1.052   .     S
O2780  C2835   1.397   .     S
C2781  H2808   1.124   .     S
C2781  C2846   1.520   .     S
C2781  H2822   1.120   .     S
O2782  C2815   1.391   .     S
C2783  H2869   1.136   .     S
C2783  H2791   1.101   .     S
C2783  C5660   1.511   .     S
H2785  C2789   1.070   .     S
C2786  N2803   1.139   .     S
C2788  C2843   1.550   .     S
C2788  C2800   1.568   .     S
C2789  C2821   1.504   .     S
C2790  O3352   1.395   1_554 S
C2792  C2837   1.434   .     S
C2792  O2851   1.430   .     S
C2792  C2802   1.393   .     S
C2793  C2870   1.407   .     S
C2793  O2857   1.376   .     S
O2794  C2799   1.389   .     S
O2795  C2866   1.415   .     S
O2795  C2810   1.345   .     S
C2796  C2827   1.385   .     S
C2796  C3595   1.537   .     S
C2796  C3583   1.383   .     S
C2798  C2833   1.337   .     S
C2798  C2810   1.356   .     S
C2798  H2844   1.097   .     S
C2799  C2850   1.396   .     S
C2800  H2836   1.138   .     S
C2801  C2821   1.510   .     S
C2801  C2861   1.394   .     S
C2804  C2866   1.392   .     S
C2804  C2964   1.403   .     S
H2805  C2831   1.103   .     S
H2806  C2820   1.084   .     S
C2809  H2818   1.136   .     S
C2809  C2826   1.571   .     S
C2810  C2994   1.456   .     S
O2812  C2839   1.336   .     S
O2812  C2817   1.395   .     S
H2814  C2816   1.119   .     S
C2815  C2872   1.383   .     S
C2815  C3428   1.422   1_554 S
C2816  H2853   1.160   .     S
C2825  O2857   1.374   .     S
C2826  C2860   1.501   .     S
H2830  C5582   1.189   .     S
C2831  C3036   1.542   .     S
C2832  C2860   1.426   .     S
C2832  C3056   1.389   .     S
C2833  C2890   1.401   .     S
C2837  C2841   1.399   .     S
C2841  N5045   1.120   1_545 S
C2842  C2863   1.390   .     S
C2842  C3021   1.363   .     S
C2843  C2854   1.388   .     S
C2846  C2854   1.541   .     S
C2846  C2862   1.525   .     S
O2851  C2856   1.411   .     S
H2855  C2862   1.062   .     S
H2858  C4972   1.138   1_545 S
C2863  C2959   1.357   .     S
C2866  C2984   1.390   .     S
C2868  C2914   1.405   .     S
C2870  H2875   1.089   .     S
C2872  C3417   1.377   1_554 S
C2876  C5636   1.421   .     S
C2876  C5532   1.524   .     S
H2877  C4875   1.127   1_545 S
C2879  N2880   1.194   .     S
C2879  C2885   1.448   .     S
C2881  O2921   1.363   .     S
C2881  C2905   1.394   .     S
C2881  C2885   1.443   .     S
C2882  C2959   1.398   .     S
C2882  C2886   1.432   .     S
C2882  O2883   1.355   .     S
O2883  C2884   1.417   .     S
C2884  C2891   1.396   .     S
C2884  C2885   1.375   .     S
C2886  C3021   1.369   .     S
C2886  O2895   1.364   .     S
C2887  C2980   1.393   .     S
C2887  C5768   1.408   .     S
C2887  O5167   1.416   1_545 S
C2888  H3039   1.072   .     S
C2888  H2945   1.071   .     S
C2888  H2992   1.090   .     S
C2888  C3005   1.561   .     S
C2889  C3023   1.360   .     S
C2889  C3011   1.574   .     S
C2889  C3174   1.388   .     S
C2890  C3036   1.518   .     S
C2890  C2981   1.372   .     S
C2891  O2895   1.391   .     S
C2891  C2907   1.368   .     S
C2892  C2935   1.512   .     S
C2892  C2904   1.502   .     S
H2893  C2965   1.141   .     S
N2894  C2972   1.150   .     S
O2896  C3060   1.394   .     S
O2896  C2953   1.382   .     S
H2897  C2982   1.126   .     S
H2898  C2986   1.122   .     S
C2899  H2968   1.040   .     S
C2899  H2952   1.103   .     S
C2899  C2996   1.506   .     S
C2899  C2944   1.490   .     S
O2900  C2983   1.395   .     S
O2900  C3043   1.409   .     S
O2901  C2971   1.362   .     S
O2901  C3072   1.387   .     S
C2902  C2936   1.429   .     S
C2902  O2921   1.391   .     S
C2902  C3018   1.344   .     S
H2903  C2941   1.108   .     S
C2904  C2978   1.369   .     S
C2904  C3034   1.386   .     S
C2905  C2907   1.398   .     S
C2905  O2909   1.353   .     S
H2906  C2998   1.084   .     S
C2907  C2910   1.437   .     S
C2908  H3014   1.089   .     S
C2908  H2962   1.075   .     S
C2908  H3046   1.112   .     S
C2908  C2995   1.630   .     S
O2909  C2936   1.442   .     S
C2910  N2911   1.164   .     S
H2912  C3027   1.058   .     S
C2913  C2980   1.392   .     S
C2913  N2977   1.154   .     S
C2914  C3056   1.396   .     S
C2914  O2934   1.358   .     S
H2915  C3038   1.116   .     S
H2916  C2920   1.112   .     S
H2917  C2935   1.146   .     S
H2918  C2941   1.111   .     S
H2919  C3027   1.120   .     S
C2920  C2953   1.392   .     S
C2920  C2978   1.398   .     S
H2922  C3049   1.116   .     S
C2923  H2928   1.111   .     S
C2923  H2999   1.110   .     S
C2923  H3029   1.104   .     S
C2923  C2995   1.510   .     S
C2924  H3053   1.055   .     S
C2924  C3058   1.383   .     S
C2924  C3044   1.360   .     S
H2925  C3023   1.131   .     S
C2926  C2985   1.522   .     S
C2926  C5755   1.538   .     S
C2926  C3044   1.505   .     S
C2926  C2958   1.502   .     S
C2927  C3018   1.341   .     S
C2927  C3020   1.391   .     S
C2927  C3011   1.487   .     S
H2929  C3033   1.139   .     S
H2930  C2935   1.039   .     S
H2931  C2982   1.061   .     S
H2932  C3006   1.141   .     S
C2933  C2942   1.359   .     S
C2933  C3010   1.502   .     S
C2933  C2958   1.371   .     S
C2935  C3004   1.545   .     S
C2936  C2965   1.361   .     S
C2937  C3034   1.402   .     S
C2937  C2953   1.393   .     S
C2937  O3015   1.436   .     S
C2938  H2943   1.090   .     S
C2938  H2997   1.079   .     S
C2938  H3025   1.129   .     S
C2938  C3010   1.531   .     S
H2939  C2985   1.100   .     S
H2940  C2986   1.091   .     S
C2941  C2944   1.525   .     S
C2941  H2987   1.108   .     S
C2942  H2990   1.072   .     S
C2942  C2983   1.404   .     S
C2944  C5881   1.507   .     S
C2944  C3027   1.501   .     S
C2946  H3032   1.096   .     S
C2946  H2954   1.085   .     S
C2946  C2995   1.499   .     S
C2946  C3047   1.529   .     S
C2947  C2996   1.569   .     S
C2947  C5824   1.410   .     S
C2947  C5834   1.375   .     S
C2948  H2973   1.130   .     S
C2948  H3050   1.067   .     S
C2948  C3036   1.556   .     S
C2948  H3048   1.082   .     S
H2949  C3026   1.051   .     S
H2950  C5843   1.138   .     S
H2951  C3027   1.151   .     S
H2955  C3006   1.097   .     S
H2956  C3078   1.079   .     S
C2958  C2991   1.387   .     S
C2959  H3055   1.095   .     S
H2960  C2988   1.114   .     S
N2961  C3007   1.141   .     S
H2963  C2988   1.124   .     S
C2964  C2967   1.384   .     S
C2965  C3020   1.415   .     S
H2966  C3018   1.107   .     S
C2967  O3000   1.411   .     S
C2967  C3017   1.351   .     S
H2969  C2981   1.119   .     S
H2970  C3068   1.135   .     S
C2971  C3063   1.376   .     S
C2971  C3023   1.402   .     S
C2972  C3017   1.401   .     S
H2974  C2985   1.090   .     S
O2975  C2994   1.349   .     S
O2975  C2984   1.408   .     S
C2976  C2991   1.372   .     S
C2976  C2983   1.446   .     S
C2976  O3013   1.431   .     S
C2978  C3004   1.512   .     S
C2979  C5762   1.369   .     S
C2979  C3043   1.434   .     S
C2979  O3013   1.339   .     S
C2980  C3043   1.405   .     S
C2981  C2994   1.361   .     S
C2982  C3010   1.546   .     S
C2982  H3003   1.079   .     S
C2984  C3017   1.451   .     S
C2985  C3010   1.571   .     S
C2986  C3005   1.566   .     S
C2986  H3028   1.150   .     S
C2988  H3041   1.146   .     S
C2988  C3051   1.576   .     S
C2989  C3047   1.483   .     S
C2989  C3052   1.416   .     S
C2989  C5066   1.350   1_545 S
C2991  H5835   1.108   .     S
C2993  C3064   1.371   .     S
C2993  H6492   1.108   .     S
C2993  C3067   1.414   .     S
C2995  C3016   1.515   .     S
C2996  C3035   1.563   .     S
C2996  C5758   1.515   .     S
C2998  H3002   1.103   .     S
C2998  C3004   1.520   .     S
C2998  H3022   1.126   .     S
O3000  C3753   1.363   .     S
O3001  C3063   1.418   .     S
O3001  C5053   1.367   1_545 S
C3004  C3031   1.628   .     S
C3005  C3038   1.557   .     S
C3005  C3052   1.555   .     S
C3006  C3036   1.548   .     S
C3006  H3037   1.134   .     S
C3007  C3637   1.424   .     S
H3008  C3031   1.073   .     S
H3009  C3066   1.131   .     S
C3011  C3156   1.598   .     S
C3011  C3165   1.580   .     S
H3012  C3021   1.081   .     S
O3015  C3698   1.357   .     S
C3016  C3026   1.396   .     S
C3016  C3019   1.363   .     S
C3019  C3047   1.489   .     S
C3019  C5179   1.385   1_545 S
C3020  C3205   1.512   .     S
H3024  C3156   1.104   .     S
C3026  C5180   1.371   1_545 S
H3030  C3237   1.118   .     S
C3031  H3040   1.103   .     S
C3031  H3045   1.103   .     S
C3033  C3051   1.580   .     S
C3035  H3062   1.092   .     S
C3035  H5101   1.123   1_545 S
C3035  C5176   1.573   1_545 S
C3038  H3042   1.094   .     S
C3038  C3047   1.576   .     S
C3044  C3067   1.406   .     S
C3049  C3051   1.492   .     S
C3049  C3124   1.531   .     S
C3051  C3239   1.478   .     S
C3052  C5120   1.422   1_545 S
H3054  C3056   1.079   .     S
N3057  C3680   1.191   .     S
C3058  O3233   1.365   .     S
C3058  C3064   1.444   .     S
H3059  C5824   1.120   .     S
C3060  C3698   1.408   .     S
C3060  C3065   1.385   .     S
H3061  C5723   1.070   .     S
C3063  C3122   1.391   .     S
C3064  O3937   1.396   .     S
C3065  C3071   1.436   .     S
C3065  C3511   1.392   .     S
C3066  C2365   1.531   1_545 S
C3066  H5161   1.098   1_545 S
C3067  C5708   1.526   .     S
C3068  H3073   1.106   .     S
C3068  C3205   1.546   .     S
C3068  H3139   1.117   .     S
H3069  C3112   1.112   .     S
H3070  C3141   1.077   .     S
C3071  N3074   1.158   .     S
C3072  C5053   1.404   1_545 S
C3072  C5163   1.388   1_545 S
C3075  C3235   1.380   .     S
C3075  C3091   1.366   .     S
H3076  C3175   1.110   .     S
C3077  C3101   1.500   .     S
C3077  H3241   1.152   .     S
C3077  H3095   1.077   .     S
C3077  H5310   1.082   1_545 S
C3078  H3121   1.127   .     S
C3078  C3155   1.565   .     S
C3078  C3124   1.545   .     S
C3079  C3310   1.386   .     S
C3079  O3147   1.396   .     S
C3079  C3226   1.427   .     S
H3080  C3213   1.117   .     S
C3081  H3173   1.127   .     S
C3081  H3222   1.101   .     S
C3081  C3928   1.519   .     S
C3081  C3094   1.561   .     S
C3082  H3105   1.112   .     S
C3082  C3219   1.411   .     S
C3082  C3200   1.370   .     S
H3083  C3148   1.109   .     S
O3084  C3214   1.374   .     S
O3084  C3210   1.437   .     S
C3085  H3109   1.090   .     S
C3085  H3117   1.131   .     S
C3085  H3134   1.104   .     S
C3085  C3205   1.519   .     S
C3086  H3096   1.068   .     S
C3086  C3149   1.552   .     S
C3086  H3088   1.129   .     S
C3086  H3120   1.119   .     S
C3087  H3181   1.088   .     S
C3087  H3424   1.109   .     S
C3087  C3146   1.512   .     S
C3087  H3127   1.093   .     S
H3089  C3199   1.079   .     S
C3090  H3187   1.132   .     S
C3090  H3125   1.090   .     S
C3090  C3162   1.557   .     S
C3090  C3101   1.511   .     S
C3091  C3217   1.412   .     S
N3092  C3176   1.147   .     S
C3093  C3104   1.411   .     S
C3093  C3107   1.359   .     S
C3093  H3208   1.100   .     S
C3094  C3841   1.540   .     S
C3094  C3231   1.513   .     S
C3094  C3100   1.562   .     S
O3097  C3111   1.412   .     S
O3097  C3107   1.373   .     S
H3098  C3156   1.126   .     S
H3099  C3175   1.094   .     S
C3100  H3108   1.096   .     S
C3100  H3138   1.064   .     S
C3100  H3195   1.091   .     S
C3101  C3200   1.519   .     S
C3101  C5240   1.571   1_545 S
C3102  C3124   1.569   .     S
C3102  C3239   1.388   .     S
C3102  C3202   1.379   .     S
H3103  C3122   1.137   .     S
C3104  C3162   1.514   .     S
C3104  C3200   1.368   .     S
O3106  C3277   1.445   .     S
O3106  C5447   1.429   1_545 S
C3107  C3219   1.440   .     S
O3110  C3178   1.472   .     S
O3110  C3302   1.382   .     S
C3111  C3114   1.397   .     S
C3111  C3172   1.428   .     S
C3112  C3155   1.528   .     S
N3113  C3136   1.150   .     S
C3114  C3145   1.428   .     S
C3114  C3116   1.354   .     S
H3115  C3165   1.105   .     S
C3116  O3142   1.418   .     S
C3116  C3210   1.416   .     S
C3118  H3188   1.079   .     S
C3118  C3226   1.424   .     S
C3118  C3228   1.355   .     S
C3119  C3137   1.383   .     S
C3119  C3132   1.379   .     S
C3119  C3150   1.532   .     S
C3122  C3174   1.358   .     S
C3123  N3129   1.122   .     S
C3123  C3183   1.417   .     S
C3124  C3158   1.541   .     S
H3126  C3165   1.157   .     S
H3128  C3203   1.078   .     S
C3130  C3411   1.365   .     S
C3130  C3148   1.435   .     S
C3130  O3189   1.403   .     S
C3131  H3180   1.123   .     S
C3131  C3150   1.502   .     S
C3131  H3215   1.112   .     S
C3131  H3221   1.106   .     S
C3132  C3197   1.383   .     S
C3132  C3162   1.498   .     S
H3133  C3272   1.150   .     S
H3135  C3175   1.128   .     S
C3136  C3868   1.426   .     S
C3137  C3164   1.418   .     S
C3137  H3206   1.123   .     S
H3140  C3141   1.123   .     S
C3141  C3179   1.538   .     S
C3141  H3218   1.091   .     S
O3142  C3151   1.330   .     S
H3143  C3231   1.073   .     S
H3144  C3182   1.091   .     S
C3145  N3160   1.170   .     S
C3146  C3171   1.564   .     S
C3146  C3175   1.554   .     S
C3146  C3408   1.525   .     S
O3147  C6010   1.377   .     S
C3148  C3171   1.375   .     S
C3149  C3152   1.543   .     S
C3149  C3217   1.544   .     S
C3150  C3203   1.555   .     S
C3150  C3213   1.536   .     S
C3151  C3202   1.402   .     S
C3151  C3214   1.434   .     S
C3152  H3170   1.134   .     S
C3152  H3194   1.047   .     S
C3152  H3168   1.104   .     S
C3153  C3197   1.392   .     S
C3153  O3154   1.408   .     S
C3153  C3164   1.443   .     S
O3154  C3191   1.393   .     S
C3155  C3201   1.518   .     S
C3156  C3179   1.509   .     S
H3157  C3930   1.130   .     S
H3159  C3213   1.100   .     S
C3161  C5934   1.360   .     S
C3161  C3176   1.390   .     S
C3161  C3191   1.368   .     S
C3162  C3213   1.475   .     S
H3163  C3197   1.130   .     S
C3164  O3177   1.380   .     S
C3165  C3205   1.478   .     S
H3166  C3234   1.126   .     S
H3167  C3182   1.112   .     S
C3169  H3190   1.072   .     S
C3169  H3216   1.085   .     S
C3169  H3196   1.111   .     S
C3169  C3179   1.564   .     S
C3171  C3412   1.369   .     S
C3172  C3183   1.414   .     S
C3172  O3227   1.387   .     S
C3174  C3179   1.508   .     S
O3177  C3220   1.428   .     S
C3178  C3235   1.401   .     S
C3178  C3211   1.380   .     S
C3182  H3204   1.116   .     S
C3182  C3223   1.533   .     S
C3183  C3210   1.377   .     S
H3184  C3409   1.113   .     S
H3185  C3202   1.105   .     S
C3186  N3230   1.156   .     S
C3186  C3934   1.404   .     S
O3189  C3932   1.408   .     S
C3191  C3220   1.422   .     S
H3192  C3203   1.076   .     S
H3193  C3234   1.074   .     S
H3198  C3231   1.111   .     S
C3199  H3225   1.102   .     S
C3199  H3229   1.106   .     S
C3199  C3911   1.528   .     S
C3201  H3232   1.137   .     S
C3201  H3240   1.081   .     S
C3201  H3939   1.088   .     S
C3203  H3209   1.082   .     S
H3207  C3231   1.079   .     S
C3211  C3217   1.411   .     S
C3211  H3212   1.113   .     S
C3214  C3237   1.380   .     S
C3219  O3227   1.401   .     S
C3220  C6069   1.422   .     S
C3223  C3228   1.503   .     S
C3223  C3309   1.512   .     S
C3223  C3272   1.538   .     S
H3224  C3234   1.062   .     S
C3226  O5943   1.395   .     S
C3228  C3405   1.376   .     S
O3233  C3819   1.385   .     S
C3234  C5311   1.596   1_545 S
C3235  O3238   1.406   .     S
C3237  C3239   1.403   .     S
O3238  C3266   1.383   .     S
H3242  C3309   1.132   .     S
H3243  C3378   1.025   .     S
C3244  O3306   1.383   .     S
C3244  C3299   1.431   .     S
C3244  C3255   1.368   .     S
C3245  C3289   1.450   .     S
C3245  C3330   1.352   .     S
C3245  C3298   1.525   .     S
C3246  C3356   1.425   .     S
C3247  H3399   1.114   .     S
C3247  C3256   1.397   .     S
C3247  C3335   1.378   .     S
C3248  C3255   1.349   .     S
C3248  O3271   1.374   .     S
C3248  C3379   1.458   .     S
H3249  O3410   0.962   .     S
C3250  N3350   1.187   .     S
C3250  C3341   1.367   .     S
O3251  C4145   1.356   .     S
O3251  C3299   1.419   .     S
C3252  O3288   1.407   .     S
C3252  C3393   1.381   .     S
C3252  C5448   1.436   1_545 S
C3253  C3334   1.556   .     S
C3253  C6199   1.513   .     S
C3253  H3315   1.092   .     S
C3253  H3400   1.090   .     S
H3254  C3270   1.093   .     S
C3255  C3345   1.403   .     S
C3256  C3403   1.384   .     S
C3256  C3375   1.507   .     S
C3257  N3427   1.149   .     S
C3257  C3292   1.399   .     S
H3258  C3294   1.114   .     S
H3259  C3413   1.127   .     S
H3260  C3408   1.120   .     S
C3261  O3323   1.409   .     S
C3261  C4018   1.420   .     S
C3261  C3374   1.401   .     S
H3262  C3369   1.155   .     S
H3263  C3294   1.119   .     S
H3264  C3396   1.085   .     S
H3265  C3316   1.119   .     S
C3266  C3302   1.399   .     S
C3266  C3356   1.331   .     S
C3267  C3383   1.515   .     S
C3267  H3275   1.063   .     S
C3267  H3365   1.138   .     S
C3267  H3287   1.157   .     S
C3268  C3341   1.458   .     S
C3268  C3417   1.401   .     S
C3268  O3300   1.346   .     S
H3269  C3309   1.128   .     S
C3270  H3284   1.071   .     S
C3270  H3329   1.140   .     S
C3270  C3334   1.517   .     S
O3271  C3364   1.402   .     S
C3272  H3395   1.143   .     S
C3272  C3336   1.510   .     S
C3273  C3396   1.598   .     S
C3273  C3412   1.551   .     S
C3273  C3408   1.444   .     S
C3273  C3312   1.544   .     S
C3274  C3354   1.539   .     S
C3274  H3373   1.110   .     S
C3274  H3421   1.084   .     S
C3274  H3360   1.105   .     S
C3276  C3385   1.361   .     S
C3276  C3304   1.399   .     S
C3276  C3334   1.472   .     S
C3277  C3335   1.357   .     S
C3277  C3409   1.449   .     S
N3278  C3345   1.148   .     S
C3279  C3381   1.396   .     S
C3279  C3362   1.407   .     S
C3279  O3282   1.474   .     S
H3280  C3309   1.104   .     S
C3281  C3391   1.418   .     S
C3281  C3298   1.523   .     S
C3281  C3369   1.341   .     S
O3282  C3283   1.376   .     S
C3283  C3333   1.427   .     S
C3283  C3286   1.446   .     S
H3285  C3286   1.072   .     S
C3286  C3289   1.368   .     S
O3288  C3414   1.445   .     S
C3289  C3293   1.542   .     S
H3290  C3378   1.093   .     S
C3291  C3338   1.358   .     S
C3291  C3319   1.387   .     S
C3292  C3299   1.370   .     S
C3292  C3379   1.352   .     S
C3293  C3297   1.521   .     S
C3293  C3303   1.526   .     S
C3293  C3378   1.538   .     S
C3294  H3367   1.066   .     S
C3294  C3375   1.544   .     S
H3295  C3396   1.065   .     S
H3296  C3297   1.092   .     S
C3297  H3368   1.054   .     S
C3297  H3389   1.139   .     S
C3298  C3337   1.553   .     S
C3298  C3303   1.521   .     S
O3300  C3328   1.343   .     S
H3301  C3404   1.064   .     S
C3302  C3381   1.405   .     S
C3303  H3372   1.073   .     S
C3303  H3390   1.180   .     S
C3304  C6199   1.530   .     S
C3304  C3351   1.415   .     S
H3305  C3388   1.099   .     S
O3306  C3366   1.403   .     S
H3307  C3393   1.152   .     S
H3308  C3337   1.118   .     S
C3310  C3405   1.388   .     S
C3310  H3406   1.121   .     S
H3311  C3408   1.096   .     S
C3312  C3314   1.405   .     S
C3312  C3382   1.358   .     S
C3313  C3316   1.373   .     S
C3313  C3322   1.432   .     S
C3313  O3320   1.386   .     S
C3314  C3383   1.483   .     S
C3314  C3316   1.385   .     S
N3317  C3319   1.167   .     S
O3318  C3417   1.366   .     S
O3318  C3416   1.369   .     S
O3320  C3387   1.352   .     S
H3321  C3402   1.156   .     S
C3322  O3340   1.379   .     S
C3322  C3382   1.364   .     S
O3323  C4083   1.400   .     S
O3324  C3379   1.427   .     S
O3324  C3363   1.399   .     S
C3325  C3375   1.539   .     S
C3325  H3359   1.108   .     S
C3325  H3348   1.102   .     S
C3325  C3336   1.568   .     S
N3326  C3342   1.181   .     S
C3327  H3423   1.122   .     S
C3327  H3426   1.078   .     S
C3327  H3951   1.066   .     S
C3327  C6844   1.593   .     S
C3328  C3384   1.430   .     S
C3328  C3416   1.410   .     S
C3330  H3346   1.131   .     S
C3330  C3333   1.391   .     S
O3331  C3362   1.401   .     S
O3331  C3333   1.379   .     S
C3332  C3393   1.393   .     S
C3332  C2699   1.580   1_556 S
C3332  C5465   1.405   1_545 S
C3334  C3404   1.554   .     S
C3335  O3358   1.413   .     S
C3336  C3403   1.525   .     S
C3336  C3405   1.524   .     S
C3337  H3376   1.124   .     S
C3337  C3354   1.538   .     S
C3338  O3352   1.394   .     S
C3339  H3398   1.033   .     S
C3339  C3354   1.490   .     S
C3339  H3355   1.142   .     S
C3339  H3394   1.100   .     S
O3340  C3349   1.393   .     S
C3341  C3428   1.424   .     S
C3342  C3420   1.425   .     S
H3343  C3384   1.130   .     S
C3344  N3429   1.133   .     S
C3344  C3381   1.405   .     S
O3347  C2685   1.430   1_545 S
O3347  C5471   1.408   1_545 S
C3349  C3374   1.396   .     S
C3349  C3387   1.388   .     S
C3351  C3363   1.413   .     S
C3351  H6229   1.157   .     S
O3352  C2790   1.395   1_556 S
N3353  C3371   1.174   .     S
C3354  C3391   1.517   .     S
C3356  C3362   1.374   .     S
H3357  C3388   1.167   .     S
O3358  C5397   1.465   1_545 S
H3361  C4058   1.157   .     S
C3363  C3364   1.418   .     S
C3364  C3385   1.437   .     S
C3366  C4145   1.399   .     S
C3366  C4058   1.366   .     S
C3369  C3415   1.352   .     S
H3370  C3378   1.164   .     S
C3371  C3374   1.388   .     S
C3375  C3388   1.520   .     S
H3377  C3385   1.121   .     S
H3380  C3388   1.116   .     S
C3382  H3386   1.100   .     S
C3383  C3402   1.533   .     S
C3383  C3396   1.534   .     S
C3384  C6201   1.430   .     S
C3387  C4127   1.473   .     S
C3392  H3401   1.066   .     S
C3392  C5050   1.426   1_546 S
C3392  C5471   1.392   1_545 S
O3397  C5353   1.386   1_545 S
O3397  C5452   1.445   1_545 S
C3402  H4104   1.137   .     S
C3402  H3422   1.123   .     S
C3403  C3409   1.389   .     S
C3404  H3419   1.130   .     S
C3404  H5389   1.072   1_545 S
H3407  C4050   1.103   .     S
O3410  C5362   1.430   1_545 S
C3411  O3942   1.366   .     S
C3411  C3413   1.381   .     S
C3412  C3413   1.431   .     S
C3414  C3420   1.406   .     S
C3414  C5342   1.385   1_545 S
C3416  C6270   1.412   .     S
C3417  C2872   1.377   1_556 S
H3418  C5487   1.071   1_545 S
C3420  C5353   1.395   1_545 S
H3425  C6177   1.097   .     S
C3428  O2718   1.412   1_556 S
C3428  C2815   1.422   1_556 S
C3430  O3431   1.369   .     S
C3430  C3433   1.454   .     S
C3430  C3432   1.368   .     S
O3431  C3495   1.411   .     S
C3432  H3455   1.096   .     S
C3432  C3434   1.380   .     S
C3433  C3435   1.347   .     S
C3433  O3478   1.397   .     S
C3434  C3458   1.414   .     S
C3434  C3457   1.484   .     S
C3435  H3459   1.120   .     S
C3435  C3458   1.357   .     S
O3436  C3483   1.325   .     S
H3437  C3494   1.107   .     S
C3438  C3613   1.332   .     S
C3438  N3471   1.152   .     S
H3439  C3510   1.109   .     S
C3440  C3443   1.506   .     S
C3440  C3466   1.382   .     S
C3440  C3519   1.392   .     S
C3441  C3494   1.549   .     S
C3441  C3456   1.537   .     S
C3441  C3582   1.586   .     S
C3441  C3583   1.483   .     S
C3442  C3487   1.401   .     S
C3442  C3595   1.537   .     S
C3442  C3501   1.385   .     S
C3443  C3472   1.495   .     S
C3443  C3464   1.584   .     S
C3443  C3510   1.480   .     S
H3444  C3581   1.091   .     S
O3445  C3488   1.381   .     S
O3445  C3489   1.372   .     S
C3446  H3468   1.109   .     S
C3446  H3516   1.112   .     S
C3446  C3571   1.529   .     S
C3446  H3537   1.087   .     S
H3447  C6377   1.093   .     S
C3448  C3550   1.363   .     S
C3448  C6354   1.385   .     S
C3448  O3485   1.413   .     S
N3449  C4119   1.177   1_554 S
H3450  C3572   1.118   .     S
C3451  H3620   1.081   .     S
C3451  H3555   1.078   .     S
C3451  H3520   1.124   .     S
C3451  C3512   1.465   .     S
C3452  O3574   1.382   .     S
C3452  C3575   1.406   .     S
C3452  C3540   1.410   .     S
H3453  C3626   1.092   .     S
C3454  C4272   1.545   .     S
C3454  H3627   1.117   .     S
C3454  H3549   1.114   .     S
C3454  H3614   1.092   .     S
C3456  H3527   1.101   .     S
C3456  H3561   1.083   .     S
C3456  H3517   1.120   .     S
C3457  C3473   1.517   .     S
C3457  C3522   1.546   .     S
C3457  C3556   1.465   .     S
C3458  C3512   1.545   .     S
H3460  C3464   1.072   .     S
H3461  C3464   1.204   .     S
H3462  C3556   1.129   .     S
C3463  C3623   1.377   .     S
C3463  H3592   1.091   .     S
C3463  C6566   1.409   .     S
C3464  H3481   1.122   .     S
C3465  H3530   1.183   .     S
C3465  C3489   1.364   .     S
C3465  C3587   1.404   .     S
C3466  H3545   1.112   .     S
C3466  C3500   1.329   .     S
C3467  C3585   1.502   .     S
C3467  C3501   1.540   .     S
C3467  C3507   1.517   .     S
C3469  H3479   1.086   .     S
C3469  H3584   1.118   .     S
C3469  H3594   1.081   .     S
C3469  C3524   1.468   .     S
H3470  C3510   1.151   .     S
C3472  H3589   1.099   .     S
C3472  H3499   1.082   .     S
C3472  C3497   1.542   .     S
C3473  C3558   1.380   .     S
C3473  C3476   1.382   .     S
C3474  C3612   1.380   .     S
C3474  C3501   1.404   .     S
C3474  H3567   1.099   .     S
C3475  C3578   1.421   .     S
C3475  N6379   1.172   .     S
C3476  C3535   1.383   .     S
C3476  H3552   1.101   .     S
N3477  C3607   1.139   .     S
O3478  C3509   1.387   .     S
H3480  C3622   1.072   .     S
C3482  C3483   1.408   .     S
C3482  C3514   1.362   .     S
C3482  H4069   1.109   1_554 S
C3483  C3489   1.415   .     S
C3484  C3566   1.413   .     S
C3484  N3538   1.160   .     S
O3485  C3565   1.444   .     S
H3486  C4133   1.134   1_554 S
C3487  C3541   1.348   .     S
C3487  H3596   1.069   .     S
C3488  C3613   1.356   .     S
C3490  O3618   1.389   .     S
C3490  C3615   1.413   .     S
C3490  C3534   1.444   .     S
H3491  C3585   1.136   .     S
C3492  C3493   1.386   .     S
C3492  C3495   1.355   .     S
C3493  N3557   1.145   .     S
C3494  H3513   1.083   .     S
C3494  C3595   1.498   .     S
C3495  C3509   1.415   .     S
O3496  C6404   1.401   .     S
O3496  C3630   1.381   .     S
C3497  C3519   1.497   .     S
C3497  C3587   1.497   .     S
C3497  C3631   1.540   .     S
H3498  C3600   1.109   .     S
C3500  O3599   1.414   .     S
C3500  C4134   1.404   1_554 S
C3502  C4219   1.360   .     S
C3502  C3577   1.402   .     S
C3502  O3579   1.388   .     S
C3503  H3551   1.087   .     S
C3503  H3610   1.136   .     S
C3503  H3547   1.101   .     S
C3503  C3571   1.516   .     S
H3504  C3572   1.074   .     S
H3505  C3572   1.137   .     S
N3506  C3544   1.130   .     S
C3507  H3523   1.118   .     S
C3507  C3595   1.547   .     S
H3508  C3510   1.100   .     S
C3511  O3611   1.398   .     S
C3511  C3601   1.410   .     S
C3512  C3554   1.505   .     S
C3512  C3556   1.600   .     S
C3514  C3587   1.381   .     S
C3514  C4132   1.523   1_554 S
C3515  C3535   1.469   .     S
C3515  C3602   1.378   .     S
C3515  O3611   1.374   .     S
H3518  C3582   1.135   .     S
C3519  C4074   1.354   1_554 S
H3521  C3602   1.095   .     S
C3522  C3571   1.554   .     S
C3522  H3532   1.094   .     S
C3522  H3559   1.104   .     S
C3524  C3623   1.544   .     S
C3524  C3622   1.561   .     S
C3524  C3572   1.532   .     S
C3526  C3529   1.372   .     S
C3526  H3564   1.129   .     S
C3526  C6291   1.423   .     S
C3528  C3575   1.365   .     S
C3528  C3548   1.362   .     S
C3528  O3563   1.391   .     S
C3529  C3608   1.462   .     S
C3529  O3574   1.383   .     S
H3531  C3582   1.126   .     S
H3533  C3582   1.126   .     S
C3534  O3619   1.449   .     S
C3534  C3580   1.360   .     S
C3535  O3606   1.391   .     S
H3536  C3651   1.135   .     S
C3539  C3603   1.379   .     S
C3539  C3615   1.400   .     S
C3540  C3578   1.322   .     S
C3540  O3569   1.405   .     S
C3541  O3618   1.379   .     S
C3541  C3612   1.418   .     S
C3542  C3615   1.386   .     S
C3542  N3605   1.134   .     S
H3543  C3585   1.113   .     S
C3544  C3575   1.442   .     S
C3546  C3626   1.522   .     S
C3546  C3581   1.520   .     S
C3546  C4057   1.506   1_554 S
C3548  C3578   1.401   .     S
C3548  O3579   1.357   .     S
C3550  H3560   1.129   .     S
C3550  C3562   1.371   .     S
H3553  C3631   1.060   .     S
C3554  H3588   1.062   .     S
C3554  H3591   1.140   .     S
C3554  H3597   1.122   .     S
C3556  H3573   1.119   .     S
C3558  C3571   1.517   .     S
C3558  C3602   1.450   .     S
C3562  C3586   1.378   .     S
C3562  C3669   1.533   .     S
O3563  C3577   1.348   .     S
C3565  C6420   1.423   .     S
C3565  C3566   1.397   .     S
C3566  C3630   1.315   .     S
H3568  C3581   1.138   .     S
O3569  C3608   1.393   .     S
N3570  C3969   1.137   1_554 S
H3576  C3581   1.057   .     S
C3577  C3600   1.397   .     S
C3580  C3603   1.418   .     S
C3580  C3624   1.403   .     S
C3585  H3593   1.124   .     S
C3586  C6952   1.504   .     S
C3586  C6295   1.375   .     S
H3590  C4311   1.070   .     S
H3598  C3609   1.025   .     S
O3599  C4055   1.350   1_554 S
C3600  C4181   1.373   .     S
C3601  O3606   1.416   .     S
C3601  C3777   1.359   .     S
H3604  C3622   1.104   .     S
C3607  C3625   1.450   .     S
C3608  C6299   1.367   .     S
C3609  C4272   1.583   .     S
C3609  H3628   1.082   .     S
C3609  H3617   1.105   .     S
C3612  O3619   1.391   .     S
H3616  C6288   1.073   .     S
H3621  C3626   1.108   .     S
C3622  C3654   1.515   .     S
C3623  C3636   1.394   .     S
C3625  C3767   1.415   .     S
C3626  C3966   1.558   1_554 S
H3629  C3963   1.098   1_554 S
C3630  C6424   1.464   .     S
C3631  C4132   1.562   1_554 S
C3631  H4138   1.081   1_554 S
H3632  C3780   1.180   .     S
C3633  H6570   1.107   .     S
C3633  C3726   1.387   .     S
C3633  C3692   1.382   .     S
H3634  C3737   1.113   .     S
C3635  C3753   1.396   .     S
C3635  H3757   1.092   .     S
C3635  C3758   1.387   .     S
C3636  C3654   1.519   .     S
C3636  C3690   1.351   .     S
C3637  C6498   1.409   .     S
C3637  C3706   1.394   .     S
O3638  C3778   1.376   .     S
O3638  C6593   1.370   .     S
C3639  H3764   1.151   .     S
C3639  C3714   1.379   .     S
C3639  C6480   1.413   .     S
C3640  H3754   1.109   .     S
C3640  H3672   1.104   .     S
C3640  H3771   1.095   .     S
C3640  C3709   1.568   .     S
C3641  C3731   1.357   .     S
C3641  C3643   1.368   .     S
C3641  O3710   1.397   .     S
C3642  C3716   1.403   .     S
C3642  C3767   1.413   .     S
C3642  O3773   1.433   .     S
C3643  C3695   1.394   .     S
C3643  O3699   1.375   .     S
H3644  C3695   1.098   .     S
H3645  C3724   1.129   .     S
H3646  C3693   1.122   .     S
C3647  C3651   1.410   .     S
C3647  C3753   1.402   .     S
C3648  H4463   1.082   .     S
C3648  C3713   1.553   .     S
C3648  H3763   1.088   .     S
C3648  H3684   1.063   .     S
H3649  C3683   1.052   .     S
H3650  C3730   1.131   .     S
C3651  C3719   1.348   .     S
H3652  C3673   1.101   .     S
C3653  H3665   1.109   .     S
C3653  H3708   1.123   .     S
C3653  H3707   1.096   .     S
C3653  C3745   1.531   .     S
C3654  C3719   1.568   .     S
C3654  C3664   1.582   .     S
H3655  C3779   1.068   .     S
H3656  C3718   1.081   .     S
C3657  C3775   1.336   .     S
C3657  C3730   1.426   .     S
C3657  C3713   1.522   .     S
C3658  H3770   1.115   .     S
C3658  C3725   1.430   .     S
C3658  C3668   1.391   .     S
C3659  H3688   1.107   .     S
C3659  C3713   1.552   .     S
C3659  H3678   1.116   .     S
C3659  H3711   1.070   .     S
C3660  C3736   1.433   .     S
C3660  N3705   1.175   .     S
H3661  C3766   1.109   .     S
C3662  O3781   1.368   .     S
C3662  C3730   1.383   .     S
C3662  C4233   1.387   .     S
C3663  C3735   1.537   .     S
C3663  C3737   1.525   .     S
C3663  C3725   1.517   .     S
C3663  C3683   1.540   .     S
C3664  C3745   1.482   .     S
C3664  H3752   1.063   .     S
C3664  H3768   1.131   .     S
H3666  C3740   1.123   .     S
O3667  C3668   1.380   .     S
O3667  C3706   1.422   .     S
C3668  C3692   1.379   .     S
C3669  C3775   1.517   .     S
C3669  C4382   1.522   .     S
C3669  C3740   1.562   .     S
C3670  C3760   1.387   .     S
C3670  C3680   1.393   .     S
H3671  C3673   1.103   .     S
C3673  H3675   1.085   .     S
C3673  C3741   1.532   .     S
H3674  C3690   1.070   .     S
H3676  C3737   1.099   .     S
H3677  C3718   1.093   .     S
H3679  C3738   1.067   .     S
C3681  C3712   1.373   .     S
C3681  C3691   1.408   .     S
C3681  C3686   1.495   .     S
C3682  C3714   1.375   .     S
C3682  C3733   1.475   .     S
C3682  C6470   1.416   .     S
C3683  H3755   1.150   .     S
C3683  H3700   1.093   .     S
H3685  C3712   1.058   .     S
C3686  C3715   1.526   .     S
C3686  C3696   1.617   .     S
C3686  C3766   1.530   .     S
H3687  C3696   1.113   .     S
C3689  O3699   1.386   .     S
C3689  C3760   1.398   .     S
C3690  C3694   1.386   .     S
C3691  C3743   1.374   .     S
C3691  C3709   1.564   .     S
C3692  O6527   1.382   .     S
C3693  H3703   1.109   .     S
C3693  C3709   1.507   .     S
C3693  H3761   1.100   .     S
C3694  C6566   1.382   .     S
C3694  O6467   1.348   .     S
C3695  C3715   1.363   .     S
C3696  H3720   1.109   .     S
C3696  C3709   1.551   .     S
H3697  C3743   1.101   .     S
C3698  C3777   1.420   .     S
C3701  O3742   1.357   .     S
C3701  C3744   1.456   .     S
C3701  C3712   1.435   .     S
C3702  C3741   1.485   .     S
C3702  C3715   1.399   .     S
C3702  C3731   1.439   .     S
N3704  C3783   1.165   .     S
C3706  C6487   1.419   .     S
O3710  C3760   1.446   .     S
C3713  C3740   1.480   .     S
C3714  C3723   1.492   .     S
C3716  C3776   1.389   .     S
C3718  C3741   1.457   .     S
C3718  H3750   1.072   .     S
C3719  C3758   1.393   .     S
H3721  C3740   1.096   .     S
H3722  C3724   1.094   .     S
C3723  C3724   1.480   .     S
C3723  C3729   1.541   .     S
C3723  C3769   1.504   .     S
C3724  H3728   1.154   .     S
C3725  C3726   1.386   .     S
C3726  C3733   1.533   .     S
H3727  C3729   1.117   .     S
C3729  H3732   1.081   .     S
C3729  C3733   1.534   .     S
C3731  H3746   1.104   .     S
C3733  C3735   1.515   .     S
H3734  C3735   1.095   .     S
C3735  H3759   1.114   .     S
C3737  H3765   1.128   .     S
C3738  H3756   1.102   .     S
C3738  C3745   1.529   .     S
C3738  H3739   1.148   .     S
C3741  C3766   1.487   .     S
O3742  C3767   1.423   .     S
C3743  C3744   1.395   .     S
C3744  O3773   1.378   .     S
C3745  C3758   1.497   .     S
H3747  C3769   1.074   .     S
H3748  C3769   1.131   .     S
H3749  C4462   1.067   .     S
H3751  C3766   1.130   .     S
H3762  C3769   1.059   .     S
H3772  C3846   1.113   .     S
N3774  C3847   1.178   .     S
C3775  C4174   1.407   .     S
C3777  C3782   1.422   .     S
C3778  C4462   1.405   .     S
C3778  C7401   1.403   .     S
C3779  H4424   1.102   .     S
C3779  H3785   1.154   .     S
O3781  C4423   1.441   .     S
C3783  C4343   1.419   .     S
N3784  C3787   1.101   .     S
H3786  C3846   1.103   .     S
C3787  C6600   1.384   .     S
H3788  C3823   1.055   .     S
C3789  C3819   1.440   .     S
C3789  C3797   1.381   .     S
C3789  O3937   1.405   .     S
H3790  C3921   1.148   .     S
H3791  C3796   1.082   .     S
H3792  C3919   1.079   .     S
C3793  C3810   1.404   .     S
C3793  N3867   1.166   .     S
H3794  C3866   1.097   .     S
C3795  C3878   1.390   .     S
C3795  O3816   1.450   .     S
C3795  C3875   1.399   .     S
C3796  C3844   1.511   .     S
C3796  H3808   1.131   .     S
C3796  H3918   1.104   .     S
C3797  C3855   1.371   .     S
C3797  C3799   1.387   .     S
C3798  C3859   1.380   .     S
C3798  C3902   1.436   .     S
C3798  O3879   1.383   .     S
C3799  N3884   1.140   .     S
C3800  C3862   1.391   .     S
C3800  O3901   1.401   .     S
C3800  C3919   1.401   .     S
C3801  C3835   1.560   .     S
C3801  C3910   1.586   .     S
C3801  C3806   1.559   .     S
C3801  C3817   1.539   .     S
H3802  C3815   1.122   .     S
O3803  C3821   1.390   .     S
O3803  C3902   1.401   .     S
C3804  C3892   1.377   .     S
C3804  N3885   1.160   .     S
H3805  C3853   1.079   .     S
C3806  H3838   1.082   .     S
C3806  H3827   1.085   .     S
C3806  H3840   1.109   .     S
C3807  H3894   1.100   .     S
C3807  C3902   1.406   .     S
C3807  C3830   1.408   .     S
H3809  C3833   1.141   .     S
C3810  C3907   1.373   .     S
C3810  C3821   1.426   .     S
C3811  H3915   1.083   .     S
C3811  C3909   1.512   .     S
C3811  C3848   1.524   .     S
C3811  H3914   1.109   .     S
O3812  C3829   1.414   .     S
O3812  C3875   1.391   .     S
H3813  C3899   1.060   .     S
C3814  C3825   1.389   .     S
C3814  H3858   1.116   .     S
C3814  C3820   1.374   .     S
C3815  H3824   1.086   .     S
C3815  C3889   1.552   .     S
C3815  H3856   1.063   .     S
O3816  C3917   1.404   .     S
C3817  C3863   1.527   .     S
C3817  H3905   1.111   .     S
C3817  H3893   1.107   .     S
O3818  C3851   1.360   .     S
O3818  C3907   1.369   .     S
C3819  C3868   1.401   .     S
C3820  C4039   1.417   .     S
C3820  O4098   1.430   .     S
C3821  C3883   1.445   .     S
C3822  C3882   1.386   .     S
C3822  C3935   1.384   .     S
C3822  O3923   1.384   .     S
C3823  H3933   1.108   .     S
C3823  C3911   1.484   .     S
C3823  H3904   1.104   .     S
C3825  C3877   1.382   .     S
C3825  C3863   1.487   .     S
C3826  C3896   1.427   .     S
C3826  O3923   1.403   .     S
C3826  C3854   1.344   .     S
H3828  C3846   1.094   .     S
C3829  C3832   1.408   .     S
C3829  C3917   1.393   .     S
C3830  C3843   1.363   .     S
C3830  C3928   1.485   .     S
H3831  C3853   1.104   .     S
C3832  C3870   1.399   .     S
C3832  H3871   1.146   .     S
C3833  C3873   1.375   .     S
C3833  C3862   1.403   .     S
H3834  C3910   1.064   .     S
H3836  C4637   1.115   .     S
H3837  C4139   1.072   .     S
C3839  C3907   1.423   .     S
C3839  C3881   1.381   .     S
C3839  O3926   1.423   .     S
C3841  C3913   1.381   .     S
C3841  C3854   1.426   .     S
H3842  C3874   1.079   .     S
C3843  C3911   1.548   .     S
C3843  C3859   1.416   .     S
C3844  C3877   1.512   .     S
C3844  C3866   1.503   .     S
C3845  C3855   1.372   .     S
C3845  O3901   1.408   .     S
C3845  C3868   1.403   .     S
C3846  C3848   1.545   .     S
C3847  C3890   1.406   .     S
C3848  C3873   1.482   .     S
C3848  C3853   1.525   .     S
H3849  C3874   1.114   .     S
H3850  C3861   1.133   .     S
C3851  C3876   1.440   .     S
C3851  C4139   1.400   .     S
H3852  C3910   1.141   .     S
C3853  H3865   1.095   .     S
C3854  H3940   1.130   .     S
C3855  O3906   1.412   .     S
C3857  C3861   1.381   .     S
C3857  C3889   1.534   .     S
C3857  C3870   1.410   .     S
C3859  H3912   1.092   .     S
H3860  C3910   1.078   .     S
C3861  C3917   1.397   .     S
C3862  O3906   1.407   .     S
C3863  C3866   1.589   .     S
H3864  C3866   1.110   .     S
C3869  C3934   1.383   .     S
C3869  O3922   1.384   .     S
C3869  C3986   1.403   .     S
C3870  C3909   1.554   .     S
H3872  C3897   1.163   .     S
C3873  C3908   1.368   .     S
C3874  C3889   1.564   .     S
C3874  H3887   1.114   .     S
C3875  C3890   1.377   .     S
C3876  C3992   1.383   .     S
C3876  O3926   1.348   .     S
C3877  C3931   1.453   .     S
C3878  C3898   1.392   .     S
O3879  C3883   1.403   .     S
H3880  C3897   1.056   .     S
C3881  C3886   1.386   .     S
C3881  C3883   1.387   .     S
C3882  O3888   1.396   .     S
C3882  C3892   1.399   .     S
C3886  N3900   1.132   .     S
O3888  C3896   1.354   .     S
C3889  C3897   1.523   .     S
N3891  C3898   1.162   .     S
C3892  C3916   1.359   .     S
H3895  C3988   1.096   .     S
C3896  C3899   1.395   .     S
C3897  C3909   1.562   .     S
C3899  C3913   1.402   .     S
H3903  C3930   1.175   .     S
C3908  C3909   1.504   .     S
C3908  C3919   1.417   .     S
C3911  C3930   1.531   .     S
C3913  C3928   1.533   .     S
C3916  C6740   1.414   .     S
C3916  O3920   1.444   .     S
O3920  C6581   1.439   .     S
C3921  C3924   1.382   .     S
C3921  C3927   1.382   .     S
O3922  C3924   1.376   .     S
C3924  C4111   1.369   .     S
H3925  C4637   1.102   .     S
C3927  C4065   1.359   .     S
C3927  C6737   1.566   .     S
C3928  C3930   1.540   .     S
H3929  C6747   1.115   .     S
C3931  H3975   1.077   .     S
C3931  C4039   1.358   .     S
C3932  C4053   1.401   .     S
C3932  C3934   1.403   .     S
C3935  C6729   1.389   .     S
C3935  C6740   1.379   .     S
H3936  C6750   1.060   .     S
H3938  C6676   1.134   .     S
H3941  C4084   1.109   .     S
O3942  C4053   1.370   .     S
N3943  C3970   1.162   .     S
H3944  C6914   1.112   .     S
C3945  N4110   1.163   .     S
C3945  C3968   1.391   .     S
H3946  C4101   1.116   .     S
H3947  C4101   1.058   .     S
H3948  C3988   1.113   .     S
H3949  C3981   1.135   .     S
C3950  C3994   1.411   .     S
C3950  C6865   1.419   .     S
C3950  O4079   1.326   .     S
C3952  H6852   1.108   .     S
C3952  H4082   1.111   .     S
C3952  H4129   1.116   .     S
C3952  C4093   1.509   .     S
C3953  O4059   1.396   .     S
C3953  C4035   1.378   .     S
C3953  C3991   1.397   .     S
H3954  C3983   1.159   .     S
H3955  C4044   1.107   .     S
O3956  C4018   1.379   .     S
O3956  C4113   1.360   .     S
H3957  C4009   1.131   .     S
H3958  C4073   1.133   .     S
C3959  O3974   1.357   .     S
C3959  C3980   1.400   .     S
O3960  C4013   1.454   .     S
O3960  C4021   1.350   .     S
O3961  C4049   1.408   .     S
C3962  O3976   1.367   .     S
C3962  C4061   1.425   .     S
C3962  C4135   1.390   .     S
C3963  H4089   1.100   .     S
C3963  H4136   1.078   .     S
C3963  H3629   1.098   1_556 S
C3963  C6441   1.565   1_556 S
H3964  C3967   1.105   .     S
N3965  C4088   1.145   .     S
C3966  C4043   1.511   .     S
C3966  C4076   1.489   .     S
C3966  C4086   1.514   .     S
C3966  C3626   1.558   1_556 S
C3967  H4071   1.092   .     S
C3967  H4114   1.143   .     S
C3967  C4006   1.500   .     S
C3968  C4013   1.368   .     S
C3968  C4049   1.349   .     S
C3969  C4035   1.343   .     S
C3969  N3570   1.137   1_556 S
C3970  C4066   1.424   .     S
C3971  O4028   1.331   .     S
C3971  C4047   1.340   .     S
C3971  C3977   1.443   .     S
C3972  C4075   1.426   .     S
C3972  C4113   1.405   .     S
C3972  H4002   1.153   .     S
O3973  C6918   1.443   .     S
O3973  C4095   1.379   .     S
O3974  C4123   1.329   .     S
O3976  C3991   1.401   .     S
C3977  O4112   1.401   .     S
C3977  C4036   1.400   .     S
H3978  C4054   1.115   .     S
O3979  C4087   1.360   .     S
O3979  C3980   1.447   .     S
C3981  C4685   1.564   .     S
C3981  H4146   1.104   .     S
C3982  C4022   1.548   .     S
C3982  C4043   1.498   .     S
C3982  C4096   1.532   .     S
C3982  C4077   1.518   .     S
C3983  C4020   1.542   .     S
C3983  H4038   1.066   .     S
C3983  H3995   1.095   .     S
C3984  H4064   1.081   .     S
C3984  C4111   1.412   .     S
C3984  C4065   1.433   .     S
H3985  C4141   1.098   .     S
C3986  O4067   1.378   .     S
C3986  C3987   1.402   .     S
C3987  C4003   1.468   .     S
C3987  C4053   1.332   .     S
C3988  H4080   1.116   .     S
C3988  C4078   1.547   .     S
C3989  C4124   1.492   .     S
C3989  C4671   1.594   .     S
C3989  C4746   1.535   .     S
C3989  C4100   1.480   .     S
C3990  C4049   1.431   .     S
C3990  C4014   1.451   .     S
C3991  C4102   1.418   .     S
C3992  H4016   1.052   .     S
C3992  C4042   1.370   .     S
C3993  C4109   1.393   .     S
C3993  C4140   1.372   .     S
C3994  O4005   1.369   .     S
C3994  C4066   1.376   .     S
H3996  C4043   1.128   .     S
O3997  C4030   1.391   .     S
O3997  C4015   1.333   .     S
C3998  C4001   1.383   .     S
C3998  C4123   1.444   .     S
C3998  H4090   1.074   .     S
C3999  C4118   1.384   .     S
C3999  O4142   1.366   .     S
C3999  C4140   1.394   .     S
H4000  C4072   1.090   .     S
C4001  C4006   1.559   .     S
C4001  C4007   1.400   .     S
C4003  N4108   1.129   .     S
H4004  C4077   1.120   .     S
O4005  C4031   1.359   .     S
C4006  C4101   1.537   .     S
C4006  C4009   1.523   .     S
C4007  C4008   1.382   .     S
C4007  C4019   1.503   .     S
C4008  C4087   1.360   .     S
C4008  H4010   1.082   .     S
C4009  H4023   1.060   .     S
C4009  C4019   1.544   .     S
H4011  C4012   1.117   .     S
C4012  H4017   1.055   .     S
C4012  C4019   1.512   .     S
C4012  C4020   1.507   .     S
C4013  C4015   1.371   .     S
C4014  C4029   1.365   .     S
C4014  C4015   1.378   .     S
C4018  C4127   1.357   .     S
C4019  C4024   1.487   .     S
C4020  C4026   1.633   .     S
C4020  C4025   1.536   .     S
C4021  C4062   1.430   .     S
C4021  C4030   1.404   .     S
C4022  C4086   1.388   .     S
C4022  C4084   1.347   .     S
C4024  C4036   1.376   .     S
C4024  C4025   1.393   .     S
C4025  C4047   1.322   .     S
C4026  H4040   1.112   .     S
C4026  H4048   1.117   .     S
C4026  H4027   1.089   .     S
O4028  C4106   1.447   .     S
C4030  C4107   1.419   .     S
C4031  C4072   1.395   .     S
C4031  C4121   1.407   .     S
H4032  C4044   1.152   .     S
C4033  C4102   1.399   .     S
C4033  O4092   1.413   .     S
C4033  C4055   1.413   .     S
H4034  C4116   1.092   .     S
C4035  C4055   1.386   .     S
C4036  H4051   1.094   .     S
H4037  C4054   1.076   .     S
C4039  O4142   1.390   .     S
H4041  C4077   1.128   .     S
C4042  C4736   1.530   .     S
C4042  C4124   1.398   .     S
C4043  H4117   1.170   .     S
C4044  H4099   1.078   .     S
C4044  C4132   1.543   .     S
C4045  C4109   1.440   .     S
C4045  C4097   1.400   .     S
C4045  C4118   1.377   .     S
H4046  C4047   1.111   .     S
C4050  C4060   1.351   .     S
C4050  C4083   1.380   .     S
C4052  C4073   1.413   .     S
C4052  C4837   1.528   .     S
C4052  C4100   1.382   .     S
C4054  C4093   1.524   .     S
C4054  H4091   1.102   .     S
C4055  O3599   1.350   1_556 S
H4056  C4103   1.178   .     S
C4057  C4076   1.395   .     S
C4057  C4107   1.395   .     S
C4057  C3546   1.506   1_556 S
C4058  C4086   1.383   .     S
O4059  C4061   1.395   .     S
C4060  C4075   1.373   .     S
C4060  C4137   1.507   .     S
C4061  C4120   1.390   .     S
C4062  H4105   1.103   .     S
C4062  C4076   1.406   .     S
H4063  C4096   1.097   .     S
C4065  C4078   1.524   .     S
C4066  C4095   1.415   .     S
O4067  C4111   1.369   .     S
H4068  C4074   1.077   .     S
H4069  C3482   1.109   1_556 S
H4070  C4096   1.100   .     S
C4072  C4100   1.373   .     S
C4073  C4121   1.373   .     S
C4074  C4134   1.401   .     S
C4074  C3519   1.354   1_556 S
C4075  C4093   1.508   .     S
C4077  H4126   1.110   .     S
C4078  C6750   1.495   .     S
C4078  C4141   1.631   .     S
O4079  C4121   1.401   .     S
H4081  C4103   1.070   .     S
C4083  C4113   1.352   .     S
C4084  C4145   1.399   .     S
N4085  C4094   1.170   .     S
C4087  C4123   1.408   .     S
C4088  C4127   1.414   .     S
O4092  C4134   1.408   .     S
C4093  C6906   1.498   .     S
C4094  C4102   1.442   .     S
C4095  C6779   1.358   .     S
C4096  H4125   1.084   .     S
C4097  N4662   1.148   .     S
O4098  C4118   1.377   .     S
C4101  H4122   1.092   .     S
C4103  H4788   1.101   .     S
C4103  C4736   1.570   .     S
C4106  C4725   1.362   .     S
C4106  C4726   1.419   .     S
C4107  H4144   1.129   .     S
C4109  O4847   1.368   .     S
O4112  C4726   1.452   .     S
H4115  C4746   1.118   .     S
C4116  C6844   1.573   .     S
C4116  H6909   1.106   .     S
C4116  C4137   1.526   .     S
C4119  C4725   1.377   .     S
C4119  N3449   1.177   1_556 S
C4120  C6797   1.344   .     S
C4120  H6821   1.122   .     S
C4124  C4139   1.380   .     S
C4128  C4846   1.407   .     S
C4128  C4143   1.394   .     S
H4130  C4133   1.146   .     S
H4131  C4133   1.129   .     S
C4132  C4133   1.534   .     S
C4132  C3514   1.523   1_556 S
C4132  C3631   1.562   1_556 S
C4133  H3486   1.134   1_556 S
C4134  C3500   1.404   1_556 S
C4135  C4808   1.375   .     S
C4135  H4717   1.158   .     S
C4137  C6906   1.541   .     S
C4137  C6805   1.488   .     S
H4138  C3631   1.081   1_556 S
C4141  H6927   1.120   .     S
C4141  H6929   1.117   .     S
C4143  C4793   1.404   .     S
C4147  C4153   1.384   .     S
C4147  N4148   1.187   .     S
O4149  C4150   1.436   .     S
O4149  C4154   1.395   .     S
C4150  C4257   1.373   .     S
C4150  C4258   1.367   .     S
C4151  C4164   1.341   .     S
C4151  O4260   1.418   .     S
C4151  C4200   1.415   .     S
H4152  C4164   1.084   .     S
C4153  C4154   1.396   .     S
C4153  C4158   1.405   .     S
C4154  C4212   1.377   .     S
C4155  C4241   1.537   .     S
C4155  C4253   1.515   .     S
C4155  C4172   1.534   .     S
C4155  C4183   1.544   .     S
H4156  C4203   1.166   .     S
O4157  C4158   1.432   .     S
O4157  C4215   1.414   .     S
C4158  C4218   1.366   .     S
H4159  C4163   1.074   .     S
C4160  C4270   1.503   .     S
C4160  H5039   1.143   .     S
C4160  H4173   1.115   .     S
C4160  H4645   1.060   1_554 S
H4161  C4276   1.115   .     S
O4162  C4262   1.416   .     S
O4162  C4200   1.404   .     S
C4163  C4186   1.400   .     S
C4163  C4310   1.354   .     S
C4164  C4205   1.396   .     S
H4165  C4217   1.105   .     S
C4166  C4203   1.351   .     S
C4166  O4201   1.373   .     S
C4166  C4206   1.410   .     S
C4167  C4270   1.521   .     S
C4167  C4204   1.408   .     S
C4167  C4805   1.408   1_554 S
H4168  C7009   1.104   .     S
H4169  C4198   1.117   .     S
C4170  C4286   1.394   .     S
C4170  C4291   1.425   .     S
C4170  C4735   1.530   1_554 S
O4171  C4206   1.362   .     S
O4171  C4305   1.436   .     S
C4172  C4219   1.371   .     S
C4172  C4181   1.397   .     S
C4174  C4233   1.414   .     S
C4174  H4294   1.115   .     S
H4175  C4244   1.103   .     S
C4176  N4285   1.176   .     S
C4176  C4290   1.382   .     S
C4177  C4300   1.441   .     S
C4177  N4288   1.132   .     S
H4178  C4241   1.064   .     S
H4179  C4192   1.040   .     S
C4180  H4256   1.104   .     S
C4180  C4204   1.399   .     S
C4180  C4271   1.403   .     S
C4181  C4224   1.512   .     S
H4182  C4198   1.162   .     S
C4183  H4254   1.128   .     S
C4183  H4292   1.148   .     S
C4183  C4236   1.557   .     S
C4184  C4228   1.526   .     S
C4184  H4202   1.079   .     S
C4184  H4284   1.117   .     S
C4184  H4279   1.107   .     S
N4185  C4230   1.162   .     S
C4186  C4307   1.457   .     S
C4187  C4262   1.463   .     S
C4187  C4216   1.412   .     S
C4187  O4260   1.413   .     S
H4188  C4295   1.067   .     S
H4189  C4219   1.087   .     S
N4190  C4303   1.155   .     S
C4191  C4199   1.433   .     S
C4191  C4268   1.408   .     S
C4192  H4277   1.082   .     S
C4192  C4269   1.550   .     S
C4192  C4228   1.535   .     S
C4193  C4263   1.512   .     S
C4193  C4332   1.368   .     S
H4194  C4273   1.096   .     S
C4195  C4197   1.519   .     S
C4195  C4245   1.502   .     S
C4195  C4199   1.543   .     S
H4196  C4209   1.083   .     S
C4197  H4264   1.170   .     S
C4197  C4266   1.616   .     S
C4198  H4261   1.163   .     S
C4198  C4224   1.547   .     S
C4199  C4203   1.343   .     S
C4200  C4244   1.431   .     S
O4201  C4222   1.393   .     S
C4204  C4269   1.547   .     S
C4205  C4253   1.351   .     S
C4205  C4236   1.538   .     S
C4206  C4268   1.393   .     S
N4207  C4223   1.151   .     S
H4208  C4211   1.151   .     S
C4209  H5046   1.116   .     S
C4209  H4301   1.151   .     S
C4209  C4228   1.521   .     S
H4210  C4419   1.063   .     S
C4211  C4263   1.533   .     S
C4211  H4361   1.069   .     S
C4211  C4363   1.496   .     S
C4212  O4213   1.449   .     S
C4212  C4221   1.384   .     S
O4213  C4258   1.376   .     S
C4214  C4215   1.439   .     S
C4214  C4240   1.383   .     S
C4214  H4247   1.105   .     S
C4215  C4226   1.399   .     S
C4216  C4249   1.389   .     S
C4216  C4328   1.373   .     S
C4217  H4232   1.133   .     S
C4217  C4236   1.516   .     S
C4217  H4242   1.152   .     S
C4218  C4221   1.365   .     S
C4218  O4227   1.390   .     S
H4220  C4243   1.084   .     S
C4221  C4230   1.415   .     S
C4222  C4305   1.424   .     S
C4222  C4290   1.370   .     S
C4223  C4778   1.412   1_554 S
C4224  C4311   1.500   .     S
C4224  C4241   1.586   .     S
O4225  C4229   1.423   .     S
O4225  C6958   1.423   .     S
C4226  O4227   1.370   .     S
C4226  C4273   1.363   .     S
C4228  C4267   1.520   .     S
C4229  C4286   1.403   .     S
C4229  C4265   1.443   .     S
H4231  C4243   1.088   .     S
C4233  O4250   1.371   .     S
O4234  C4265   1.364   .     S
O4234  C4289   1.426   .     S
H4235  C4286   1.148   .     S
C4236  C4243   1.515   .     S
C4237  H4304   1.116   .     S
C4237  H4251   1.158   .     S
C4237  C4266   1.538   .     S
C4238  C4257   1.388   .     S
C4238  C4269   1.523   .     S
C4238  C4267   1.410   .     S
H4239  C4243   1.182   .     S
C4240  C4266   1.525   .     S
C4240  C4245   1.343   .     S
C4241  H4252   1.091   .     S
C4244  C4253   1.343   .     S
C4245  C4273   1.369   .     S
H4246  C4302   1.074   .     S
H4248  C4311   1.138   .     S
C4249  N7013   1.164   .     S
O4250  C4281   1.429   .     S
H4255  C4257   1.094   .     S
C4258  C4278   1.365   .     S
H4259  C4297   1.056   .     S
C4262  C4359   1.373   .     S
C4263  C4302   1.551   .     S
C4263  C4297   1.514   .     S
C4265  C4276   1.443   .     S
C4267  C4278   1.401   .     S
C4268  H4453   1.163   .     S
C4269  C4308   1.603   .     S
C4270  C4937   1.524   .     S
C4270  C4308   1.512   .     S
C4271  O4293   1.357   .     S
C4271  C4766   1.434   1_554 S
C4272  C4291   1.578   .     S
C4272  C4790   1.496   1_554 S
H4274  C4297   1.076   .     S
C4275  C4300   1.402   .     S
C4275  O4299   1.414   .     S
C4275  C4456   1.383   .     S
C4276  C4291   1.377   .     S
C4278  H4282   1.109   .     S
H4280  C4468   1.103   .     S
C4281  C4290   1.352   .     S
C4281  C4423   1.409   .     S
H4283  C4295   1.107   .     S
H4287  C4724   1.089   1_554 S
C4289  C6958   1.354   .     S
C4289  C7012   1.438   .     S
O4293  C4802   1.441   1_554 S
C4295  C4975   1.545   .     S
C4295  H4298   1.122   .     S
H4296  C4302   1.076   .     S
O4299  C4952   1.378   .     S
C4300  C4377   1.387   .     S
C4303  C5484   1.404   1_554 S
C4305  C4343   1.430   .     S
H4306  C4468   1.148   .     S
C4307  C5001   1.374   .     S
C4308  H4312   1.140   .     S
C4308  H4962   1.060   .     S
H4309  C4311   1.093   .     S
C4310  C4975   1.515   .     S
C4310  C4877   1.343   .     S
C4313  C4314   1.366   .     S
C4313  C4448   1.389   .     S
C4313  C4344   1.372   .     S
C4314  N4315   1.186   .     S
O4316  C4355   1.414   .     S
O4316  C4354   1.419   .     S
C4317  C4413   1.502   .     S
C4317  C4375   1.540   .     S
C4317  C4329   1.547   .     S
C4317  C4351   1.477   .     S
H4318  C4414   1.165   .     S
C4319  C4419   1.576   .     S
C4319  C4429   1.507   .     S
C4319  C4468   1.525   .     S
C4319  C4394   1.543   .     S
C4320  C4434   1.416   .     S
C4320  C4341   1.410   .     S
H4321  C4413   1.081   .     S
C4322  C4351   1.575   .     S
C4322  C4397   1.539   .     S
C4322  C4349   1.462   .     S
C4322  C4380   1.560   .     S
C4323  C4340   1.435   .     S
C4323  C4384   1.365   .     S
C4323  O4431   1.377   .     S
H4324  C4419   1.154   .     S
H4325  C4338   1.125   .     S
H4326  C4413   1.120   .     S
N4327  C4346   1.118   .     S
C4328  O4440   1.457   .     S
C4328  C4354   1.408   .     S
C4329  C4402   1.426   .     S
C4329  C4349   1.411   .     S
C4330  H4395   1.102   .     S
C4330  C4332   1.383   .     S
H4331  C4351   1.100   .     S
C4332  C4363   1.561   .     S
C4333  C4421   1.373   .     S
C4333  C4434   1.399   .     S
C4333  C4337   1.482   .     S
C4334  C4380   1.405   .     S
C4334  C4410   1.490   .     S
C4334  C4392   1.393   .     S
O4335  C4340   1.385   .     S
O4335  C4367   1.376   .     S
C4336  C4349   1.340   .     S
C4336  C4425   1.392   .     S
C4336  H4436   1.081   .     S
C4337  C5151   1.548   .     S
C4337  C4378   1.499   .     S
C4337  C4558   1.563   .     S
C4338  C4394   1.380   .     S
C4338  C4348   1.432   .     S
H4339  O4408   0.984   .     S
C4340  C4401   1.370   .     S
C4341  C4370   1.391   .     S
C4341  O4458   1.402   .     S
H4342  C4345   1.144   .     S
C4343  C4423   1.377   .     S
C4344  O4409   1.435   .     S
C4344  C4451   1.437   .     S
C4345  C4360   1.386   .     S
C4345  C4417   1.387   .     S
C4346  C4401   1.387   .     S
H4347  C4413   1.086   .     S
C4348  C4417   1.420   .     S
C4348  O4430   1.403   .     S
C4350  C4384   1.446   .     S
C4350  N4390   1.205   .     S
C4351  H4388   1.132   .     S
H4352  C4429   1.113   .     S
C4353  H4381   1.103   .     S
C4353  C4405   1.559   .     S
C4353  H4387   1.085   .     S
C4353  H4369   1.075   .     S
C4354  C4359   1.350   .     S
C4355  C4362   1.394   .     S
C4355  C4414   1.354   .     S
C4356  C4438   1.549   .     S
C4356  C4415   1.573   .     S
C4356  C4411   1.577   .     S
C4356  C4467   1.543   .     S
H4357  C4429   1.087   .     S
H4358  C4397   1.081   .     S
C4359  C4398   1.433   .     S
C4360  C4394   1.388   .     S
C4360  C4363   1.498   .     S
C4362  C4392   1.400   .     S
C4362  O4440   1.419   .     S
C4363  C4419   1.546   .     S
C4364  C7157   1.374   .     S
C4364  C4385   1.409   .     S
C4364  O4404   1.336   .     S
H4365  C4382   1.110   .     S
H4366  C4429   1.079   .     S
C4367  C4469   1.405   .     S
C4367  C4452   1.450   .     S
H4368  C4375   1.131   .     S
C4370  H4407   1.047   .     S
C4370  C4421   1.394   .     S
C4371  C4456   1.355   .     S
C4371  C4391   1.443   .     S
C4371  C4428   1.410   .     S
C4372  O4404   1.370   .     S
C4372  C4403   1.396   .     S
C4372  C4384   1.391   .     S
C4373  C4444   1.346   .     S
C4373  H4437   1.105   .     S
C4373  C4385   1.413   .     S
H4374  C4450   1.054   .     S
C4375  H4420   1.137   .     S
C4375  H4416   1.130   .     S
H4376  C4439   1.071   .     S
C4377  O4432   1.384   .     S
C4377  C4428   1.436   .     S
C4378  C4405   1.482   .     S
C4378  H5111   1.126   .     S
C4378  H4393   1.062   .     S
H4379  C4468   1.232   .     S
C4380  C4414   1.375   .     S
C4382  H4396   1.102   .     S
C4382  C6952   1.510   .     S
C4383  H4446   1.106   .     S
C4383  H4435   1.087   .     S
C4383  H7147   1.070   .     S
C4383  C7201   1.557   .     S
C4385  O4412   1.409   .     S
H4386  C4397   1.124   .     S
C4389  C4402   1.391   .     S
C4389  O4427   1.419   .     S
C4389  C4425   1.482   .     S
C4391  N5087   1.150   .     S
C4392  H4399   1.125   .     S
C4397  C4410   1.561   .     S
C4398  N4406   1.126   .     S
C4401  C4403   1.389   .     S
C4402  H4426   1.118   .     S
C4403  O4412   1.377   .     S
C4405  C4421   1.534   .     S
C4405  C5168   1.598   .     S
O4408  C4417   1.382   .     S
O4409  C4464   1.381   .     S
C4410  C4450   1.588   .     S
C4410  C4439   1.511   .     S
C4411  H4457   1.086   .     S
C4411  H4443   1.092   .     S
C4411  H4455   1.063   .     S
C4415  C4462   1.346   .     S
C4415  C7150   1.420   .     S
H4418  C4439   1.081   .     S
H4422  O4430   0.959   .     S
C4425  O4432   1.340   .     S
O4427  C4428   1.404   .     S
O4431  C4452   1.385   .     S
H4433  C4438   1.141   .     S
C4434  H4461   1.103   .     S
C4438  H7237   1.154   .     S
C4438  C7253   1.570   .     S
C4439  H4449   1.063   .     S
C4441  C4451   1.354   .     S
H4442  C4454   1.062   .     S
C4444  C7134   1.414   .     S
C4444  C7201   1.498   .     S
H4445  C4467   1.087   .     S
H4447  C4450   1.118   .     S
C4448  O4460   1.399   .     S
C4450  H5069   1.116   .     S
C4451  O4476   1.378   .     S
C4452  C4573   1.401   .     S
C4454  C4464   1.391   .     S
C4454  C4571   1.325   .     S
C4456  O5032   1.321   .     S
C4459  C4631   1.394   .     S
C4459  C4580   1.380   .     S
C4459  C7253   1.562   .     S
C4464  C4551   1.456   .     S
H4465  C4467   1.114   .     S
H4466  C4584   1.079   .     S
C4467  H7241   1.155   .     S
C4469  H4500   1.083   .     S
C4469  C4524   1.399   .     S
H4472  C4533   1.077   .     S
C4473  C4576   1.552   .     S
C4473  C4591   1.522   .     S
C4473  C4559   1.569   .     S
C4473  C4513   1.529   .     S
H4474  C4616   1.132   .     S
O4476  C4551   1.361   .     S
C4477  C4570   1.593   .     S
C4477  C4518   1.473   .     S
C4477  C4598   1.499   .     S
C4477  C4613   1.554   .     S
H4478  C4591   1.062   .     S
C4479  C4531   1.403   .     S
C4479  N4503   1.149   .     S
C4480  C4556   1.430   .     S
C4480  C4549   1.392   .     S
C4480  C4507   1.394   .     S
C4481  C4555   1.415   .     S
C4481  O4482   1.351   .     S
C4481  C4488   1.426   .     S
O4482  C4519   1.347   .     S
C4483  H4582   1.075   .     S
C4483  C4629   1.536   .     S
C4483  H4603   1.087   .     S
C4483  H4509   1.156   .     S
H4484  C4558   1.124   .     S
O4485  C4507   1.376   .     S
O4485  C4521   1.414   .     S
C4486  O4621   1.424   .     S
C4486  C4599   1.343   .     S
C4486  C4553   1.394   .     S
H4487  C4570   1.096   .     S
C4488  C4624   1.363   .     S
C4488  C4516   1.387   .     S
C4489  O5255   1.426   .     S
C4489  C4536   1.399   .     S
C4489  C5322   1.395   .     S
O4490  C4587   1.397   .     S
O4490  C4556   1.420   .     S
H4491  C4613   1.073   .     S
C4492  C4594   1.376   .     S
C4492  C4551   1.340   .     S
C4492  H4572   1.108   .     S
C4493  C4625   1.452   .     S
C4493  C4514   1.405   .     S
C4493  O4566   1.424   .     S
C4494  O4510   1.392   .     S
C4494  C4519   1.450   .     S
C4494  C4515   1.361   .     S
O4495  C4529   1.382   .     S
O4495  C4544   1.359   .     S
C4496  C4508   1.493   .     S
C4496  C4499   1.412   .     S
C4496  C4533   1.414   .     S
H4497  C4548   1.107   .     S
C4499  C4512   1.588   .     S
C4499  C4522   1.352   .     S
C4501  H4638   1.146   .     S
C4501  H4620   1.096   .     S
C4501  H5271   1.173   .     S
C4501  C5324   1.495   .     S
H4502  C4588   1.049   .     S
H4504  C4540   1.123   .     S
H4505  C4613   1.165   .     S
C4506  C4610   1.475   .     S
C4506  H4575   1.117   .     S
C4506  C4562   1.497   .     S
C4506  H4534   1.051   .     S
C4507  C4529   1.443   .     S
C4508  C4538   1.577   .     S
C4508  C4565   1.492   .     S
C4508  C4574   1.549   .     S
O4510  C4555   1.429   .     S
C4511  H4547   1.126   .     S
C4511  H4546   1.101   .     S
C4511  C4532   1.493   .     S
C4511  H4618   1.091   .     S
C4512  C4565   1.523   .     S
C4512  C4550   1.494   .     S
C4512  C4576   1.519   .     S
C4513  H4640   1.077   .     S
C4513  H4600   1.078   .     S
C4513  H4592   1.063   .     S
C4514  H4606   1.078   .     S
C4514  C4619   1.415   .     S
C4515  H4585   1.118   .     S
C4515  C4559   1.431   .     S
C4516  N4545   1.115   .     S
H4517  C4591   1.131   .     S
C4518  H4539   1.101   .     S
C4518  C4583   1.605   .     S
C4518  H4563   1.049   .     S
C4519  C4540   1.382   .     S
H4520  C4581   1.126   .     S
C4521  C4522   1.390   .     S
C4521  C4544   1.396   .     S
C4522  H4543   1.075   .     S
H4523  C4538   1.085   .     S
C4524  C4562   1.533   .     S
C4524  C4617   1.424   .     S
H4525  C4636   1.134   .     S
C4526  C4623   1.567   .     S
C4526  C4619   1.502   .     S
C4526  C4581   1.497   .     S
N4527  C4549   1.187   .     S
H4528  C4576   1.102   .     S
C4529  C4531   1.400   .     S
H4530  C4613   1.092   .     S
C4531  C4577   1.391   .     S
C4532  C4616   1.485   .     S
C4532  C4594   1.533   .     S
C4532  C4588   1.524   .     S
C4533  C4544   1.350   .     S
C4535  O7219   1.417   .     S
C4535  C5183   1.384   .     S
C4535  C4602   1.399   .     S
C4536  C4598   1.357   .     S
C4536  H4601   1.070   .     S
H4537  C4538   1.107   .     S
C4538  H4590   1.160   .     S
C4540  C4550   1.346   .     S
C4541  C4555   1.388   .     S
C4541  C4627   1.397   .     S
N4542  C4560   1.145   .     S
C4548  H4593   1.110   .     S
C4548  H4614   1.107   .     S
C4548  C4610   1.507   .     S
C4550  C4559   1.386   .     S
H4552  C4565   1.061   .     S
C4553  C4651   1.394   .     S
C4553  C5316   1.368   .     S
H4554  C4570   1.113   .     S
C4556  C4577   1.419   .     S
H4557  C4574   1.136   .     S
C4558  C5324   1.540   .     S
C4558  H4605   1.094   .     S
C4560  C4589   1.440   .     S
H4561  C4574   1.151   .     S
C4562  C4571   1.507   .     S
C4562  C4616   1.494   .     S
H4564  C4565   1.130   .     S
O4566  C4599   1.390   .     S
O4567  C4608   1.348   .     S
O4567  C4577   1.423   .     S
H4568  C4588   1.121   .     S
H4569  C4581   1.078   .     S
C4570  H4611   1.111   .     S
C4571  C4594   1.412   .     S
C4573  H4612   1.056   .     S
C4573  C4617   1.386   .     S
C4574  H4579   1.094   .     S
C4576  H4607   1.080   .     S
O4578  C4624   1.375   .     S
C4580  H4641   1.102   .     S
C4580  C4587   1.373   .     S
C4581  H4609   1.114   .     S
C4583  C4596   1.604   .     S
C4583  C7568   1.499   .     S
C4583  C4728   1.545   .     S
C4584  H5231   1.092   .     S
C4584  H5328   1.122   .     S
C4584  C4610   1.516   .     S
H4586  C4588   1.098   .     S
C4587  C4608   1.416   .     S
C4589  C5284   1.399   .     S
C4589  C4602   1.394   .     S
C4591  H4635   1.102   .     S
H4595  C4636   1.114   .     S
C4596  C5330   1.381   .     S
C4596  C4598   1.387   .     S
H4597  C4622   1.095   .     S
C4599  C4848   1.405   .     S
C4602  O7355   1.405   .     S
H4604  C4623   1.099   .     S
C4608  C4622   1.424   .     S
C4610  C4617   1.530   .     S
H4615  C4616   1.069   .     S
O4621  C4625   1.388   .     S
C4622  C4631   1.380   .     S
C4623  H4632   1.092   .     S
C4624  C4627   1.444   .     S
H4626  C7379   1.126   .     S
C4629  C7346   1.533   .     S
C4629  C4636   1.518   .     S
C4629  C7379   1.518   .     S
H4630  C4671   1.062   .     S
C4631  C7238   1.529   .     S
H4633  C5194   1.142   .     S
H4634  C4637   1.132   .     S
C4636  H7338   1.064   .     S
C4637  C4837   1.563   .     S
H4639  C5194   1.131   .     S
C4642  C4655   1.596   .     S
C4642  C4793   1.340   .     S
C4642  C4721   1.383   .     S
C4643  C4835   1.399   .     S
C4643  O4812   1.357   .     S
C4643  C4737   1.441   .     S
H4644  C4678   1.146   .     S
H4645  C4160   1.060   1_556 S
C4646  C4648   1.409   .     S
C4646  C4799   1.406   .     S
C4646  C7431   1.359   .     S
H4647  C4722   1.101   .     S
C4648  O4710   1.336   .     S
C4648  C4816   1.438   .     S
N4649  C4799   1.147   .     S
H4650  C4734   1.114   .     S
C4651  O5384   1.389   .     S
C4651  C4780   1.376   .     S
H4652  C4746   1.101   .     S
H4653  C4749   1.059   .     S
N4654  C4669   1.155   .     S
C4655  C4719   1.548   .     S
C4655  C4831   1.559   .     S
C4655  C4687   1.497   .     S
C4656  H7577   1.093   .     S
C4656  H4818   1.056   .     S
C4656  C4795   1.557   .     S
C4656  H7575   1.174   .     S
C4657  C4779   1.396   .     S
C4657  C4772   1.408   .     S
C4657  O4715   1.378   .     S
H4658  C4722   1.098   .     S
C4659  C4772   1.347   .     S
C4659  C4773   1.373   .     S
C4659  C4744   1.519   .     S
H4660  C4728   1.135   .     S
C4661  C4767   1.400   .     S
C4661  C4792   1.402   .     S
C4661  H4777   1.136   .     S
C4663  C4761   1.538   .     S
C4663  C4758   1.415   .     S
C4663  C4679   1.374   .     S
H4664  C4711   1.138   .     S
H4665  C4774   1.137   .     S
H4666  C4806   1.091   .     S
O4667  C4688   1.419   .     S
O4667  C4766   1.398   .     S
H4668  C5495   1.062   .     S
C4669  C4682   1.370   .     S
C4670  C4734   1.393   .     S
C4670  O4813   1.383   .     S
C4670  C4756   1.389   .     S
C4671  H4727   1.157   .     S
C4671  C4837   1.496   .     S
H4672  C4711   1.056   .     S
C4673  C4758   1.514   .     S
C4673  C4743   1.551   .     S
C4673  C4722   1.668   .     S
C4673  C4785   1.580   .     S
C4674  C5494   1.511   .     S
C4674  C4792   1.387   .     S
C4674  C4844   1.386   .     S
H4675  C4836   1.100   .     S
C4676  C4711   1.564   .     S
C4676  C4680   1.551   .     S
C4676  C4722   1.483   .     S
C4676  C4794   1.507   .     S
C4677  C4681   1.397   .     S
C4677  C4682   1.335   .     S
C4677  O4812   1.414   .     S
C4678  C4837   1.557   .     S
C4678  H4787   1.061   .     S
C4678  H4811   1.075   .     S
C4679  H4770   1.128   .     S
C4679  C4707   1.365   .     S
C4680  C4785   1.388   .     S
C4680  C4734   1.380   .     S
C4681  C4683   1.369   .     S
C4681  O4827   1.398   .     S
C4682  C4693   1.406   .     S
C4683  C4695   1.379   .     S
C4683  C4750   1.379   .     S
H4684  C4771   1.115   .     S
C4685  C4687   1.510   .     S
C4685  C4793   1.520   .     S
H4686  C4806   1.089   .     S
C4687  H4699   1.049   .     S
C4687  H4798   1.092   .     S
C4688  C4689   1.347   .     S
C4688  C4802   1.411   .     S
C4689  C4692   1.403   .     S
C4689  C4706   1.440   .     S
H4690  C4771   1.110   .     S
C4691  O4791   1.414   .     S
C4691  C4701   1.413   .     S
C4691  C4697   1.375   .     S
C4692  C4740   1.394   .     S
C4692  O4698   1.424   .     S
C4693  O4694   1.405   .     S
C4693  C4695   1.394   .     S
O4694  C4702   1.420   .     S
C4695  O4703   1.391   .     S
C4696  C4697   1.359   .     S
C4696  C4757   1.407   .     S
C4696  H4705   1.046   .     S
C4697  O4698   1.430   .     S
H4700  C4743   1.111   .     S
C4701  H4781   1.075   .     S
C4701  C4719   1.407   .     S
C4702  C4742   1.380   .     S
C4702  C4707   1.389   .     S
O4703  C4707   1.393   .     S
C4704  H4801   1.123   .     S
C4704  H4803   1.044   .     S
C4704  C4744   1.566   .     S
C4704  C4735   1.544   .     S
C4706  N4708   1.124   .     S
C4709  C4815   1.428   .     S
C4709  C5365   1.416   .     S
C4709  O4716   1.405   .     S
O4710  C4756   1.422   .     S
C4711  H4729   1.145   .     S
N4712  C4739   1.155   .     S
H4713  C4821   1.154   .     S
H4714  C4815   1.106   .     S
O4715  C4755   1.414   .     S
O4716  C4780   1.422   .     S
H4718  C4728   1.102   .     S
C4719  C4757   1.388   .     S
H4720  C4774   1.069   .     S
C4721  H4775   1.092   .     S
C4721  C4846   1.353   .     S
C4723  C4725   1.428   .     S
C4723  C4755   1.400   .     S
C4723  O4764   1.425   .     S
C4724  C4773   1.351   .     S
C4724  C4779   1.397   .     S
C4724  H4287   1.089   1_556 S
C4726  C4738   1.366   .     S
C4728  C4795   1.614   .     S
H4730  C4805   1.085   .     S
H4731  C4823   1.079   .     S
N4732  C4747   1.125   .     S
H4733  C4836   1.124   .     S
C4735  C4790   1.603   .     S
C4735  C4773   1.546   .     S
C4735  C4170   1.530   1_556 S
C4736  C4774   1.553   .     S
C4736  C4746   1.532   .     S
C4737  O4827   1.407   .     S
C4738  C4755   1.378   .     S
C4738  C4747   1.405   .     S
C4739  C4848   1.390   .     S
C4740  O4791   1.417   .     S
C4740  C4778   1.393   .     S
H4741  C5496   1.074   .     S
C4742  C4758   1.408   .     S
C4742  H4783   1.071   .     S
C4743  C4761   1.559   .     S
C4743  H4817   1.118   .     S
C4744  C4752   1.570   .     S
C4744  C4759   1.556   .     S
H4745  C4772   1.064   .     S
C4748  C4785   1.395   .     S
C4748  H4751   1.063   .     S
C4748  C4756   1.379   .     S
C4749  C4761   1.561   .     S
C4749  H4819   1.087   .     S
C4749  H4784   1.112   .     S
C4750  N4762   1.154   .     S
C4752  H4769   1.104   .     S
C4752  H4810   1.168   .     S
C4752  H4826   1.180   .     S
H4753  C4794   1.038   .     S
H4754  C4821   1.107   .     S
C4757  C4768   1.518   .     S
C4759  H4760   1.109   .     S
C4759  H4796   1.130   .     S
C4759  H4765   1.096   .     S
C4761  C4771   1.524   .     S
H4763  C4789   1.096   .     S
O4764  C4779   1.358   .     S
C4766  C4805   1.407   .     S
C4766  C4271   1.434   1_556 S
C4767  C4839   1.373   .     S
C4768  C4823   1.508   .     S
C4768  C4831   1.526   .     S
C4768  C4782   1.532   .     S
C4771  H4829   1.084   .     S
C4774  H4845   1.137   .     S
H4776  C4825   1.113   .     S
C4778  C4802   1.419   .     S
C4778  C4223   1.412   1_556 S
C4780  C4848   1.427   .     S
C4782  H4832   1.127   .     S
C4782  H4830   1.071   .     S
C4782  H4840   1.092   .     S
H4786  C4823   1.094   .     S
C4789  C5506   1.512   .     S
C4789  H4807   1.051   .     S
C4789  H4804   1.141   .     S
C4790  H4822   1.073   .     S
C4790  H4838   1.100   .     S
C4790  C4272   1.496   1_556 S
C4792  C4820   1.588   .     S
C4794  H4800   1.087   .     S
C4794  H4828   1.126   .     S
C4795  C7429   1.572   .     S
C4795  C4821   1.487   .     S
H4797  C4806   1.102   .     S
C4802  O4293   1.441   1_556 S
C4805  C4167   1.408   1_556 S
C4806  C4820   1.516   .     S
C4808  C7536   1.543   .     S
C4808  C6797   1.372   .     S
H4809  C7576   1.127   .     S
O4813  C4816   1.426   .     S
H4814  C4842   1.131   .     S
C4815  C5501   1.344   .     S
C4816  C7484   1.352   .     S
C4820  C4842   1.542   .     S
C4820  C4825   1.545   .     S
C4821  H4834   1.137   .     S
H4824  C4835   1.091   .     S
C4825  C5494   1.530   .     S
C4825  H4841   1.121   .     S
C4831  H4833   1.129   .     S
C4836  C7536   1.525   .     S
C4836  H7540   1.105   .     S
C4839  C4844   1.374   .     S
C4842  H5464   1.116   .     S
C4842  H4843   1.094   .     S
C4844  H5355   1.124   .     S
C4846  O4847   1.388   .     S
C4849  H4997   1.136   .     S
C4849  H4982   1.148   .     S
C4849  H4992   1.098   .     S
C4849  C4994   1.546   .     S
H4850  C5021   1.098   .     S
H4851  C4915   1.110   .     S
O4852  C5015   1.342   .     S
O4852  C5009   1.411   .     S
C4853  C4957   1.419   .     S
C4853  O4892   1.419   .     S
C4853  C4949   1.385   .     S
C4854  O5032   1.411   .     S
C4854  C4879   1.410   .     S
C4854  C4952   1.420   .     S
C4855  C5002   1.521   .     S
C4855  H5017   1.123   .     S
C4855  H5011   1.085   .     S
C4855  H5012   1.093   .     S
H4856  C5024   1.080   .     S
H4857  C4974   1.200   .     S
H4858  C5030   1.095   .     S
H4859  C4872   1.108   .     S
O4860  C4873   1.381   .     S
O4860  C4988   1.374   .     S
O4861  C4911   1.378   .     S
O4861  C4866   1.367   .     S
H4862  C5021   1.152   .     S
C4863  C4877   1.552   .     S
C4863  C4915   1.557   .     S
C4863  C4979   1.505   .     S
C4863  C5024   1.554   .     S
C4864  C4866   1.380   .     S
C4864  H5033   1.110   .     S
C4864  C4979   1.402   .     S
C4865  C4985   1.529   .     S
C4865  C4915   1.458   .     S
C4865  C4868   1.467   .     S
C4865  C4993   1.534   .     S
C4866  C4971   1.434   .     S
H4867  C4951   1.120   .     S
C4868  H4970   1.105   .     S
C4868  H5044   1.074   .     S
C4868  H4944   1.103   .     S
H4869  C4938   1.110   .     S
H4870  C4951   1.091   .     S
H4871  C5031   1.113   .     S
C4872  C4954   1.406   .     S
C4872  C4873   1.398   .     S
C4873  C4980   1.388   .     S
H4874  C4957   1.109   .     S
C4875  H4941   1.087   .     S
C4875  C4990   1.560   .     S
C4875  C4947   1.571   .     S
C4875  H2877   1.127   1_565 S
N4876  C4878   1.184   .     S
C4877  C5001   1.372   .     S
C4878  C4880   1.450   .     S
C4879  C4945   1.360   .     S
C4879  H5022   1.105   .     S
C4880  C4881   1.357   .     S
C4880  C4981   1.396   .     S
C4881  O4882   1.423   .     S
C4881  C4884   1.399   .     S
O4882  C4885   1.422   .     S
H4883  C5027   1.093   .     S
C4884  C4899   1.411   .     S
C4884  O4886   1.494   .     S
C4885  C4888   1.400   .     S
C4885  C4887   1.388   .     S
O4886  C4887   1.418   .     S
C4887  C4967   1.344   .     S
C4888  H4906   1.147   .     S
C4888  C4995   1.394   .     S
N4889  C4890   1.131   .     S
C4890  C4893   1.396   .     S
C4891  C4903   1.373   .     S
C4891  C4908   1.410   .     S
C4891  C5188   1.314   .     S
O4892  C4895   1.412   .     S
C4893  C4894   1.371   .     S
C4893  C4895   1.427   .     S
C4894  F4898   1.371   .     S
C4894  C4909   1.365   .     S
C4895  C4955   1.414   .     S
C4896  C5031   1.511   .     S
C4896  C5042   1.516   .     S
C4896  C4900   1.540   .     S
C4896  C5003   1.588   .     S
C4897  C5013   1.499   .     S
C4897  C4920   1.573   .     S
C4897  C4910   1.552   .     S
C4897  C4938   1.534   .     S
C4899  C5014   1.372   .     S
C4899  C4931   1.397   .     S
C4900  C4934   1.519   .     S
C4900  H4904   1.094   .     S
C4900  H4973   1.062   .     S
O4901  C4980   1.418   .     S
O4901  C4908   1.424   .     S
H4902  C4937   1.135   .     S
C4903  C5006   1.419   .     S
C4903  O5071   1.364   .     S
C4905  C5038   1.498   .     S
C4905  C4974   1.411   .     S
C4905  C4986   1.388   .     S
N4907  C5014   1.152   .     S
C4908  C4988   1.403   .     S
C4909  F4930   1.360   .     S
C4909  C4956   1.419   .     S
C4910  H4926   1.129   .     S
C4910  H4963   1.115   .     S
C4910  C5002   1.518   .     S
C4911  C5445   1.420   1_554 S
C4911  C5484   1.427   1_554 S
C4912  H5037   1.083   .     S
C4912  H5029   1.091   .     S
C4912  C7686   1.546   .     S
C4912  H4966   1.141   .     S
O4913  C4949   1.382   .     S
O4913  C4955   1.388   .     S
H4914  C4985   1.086   .     S
C4915  H5020   1.063   .     S
N4916  C4918   1.128   .     S
C4917  C5009   1.400   .     S
C4917  O5456   1.385   1_554 S
C4917  C5505   1.386   1_554 S
C4918  C4946   1.460   .     S
C4919  C4980   1.386   .     S
C4919  H4983   1.125   .     S
C4919  C4920   1.379   .     S
C4920  C4954   1.380   .     S
C4921  H4999   1.070   .     S
C4921  H4987   1.039   .     S
C4921  H4942   1.117   .     S
C4921  C4994   1.531   .     S
H4922  C4967   1.084   .     S
O4923  C4981   1.384   .     S
O4923  C5146   1.334   .     S
N4924  C4978   1.151   .     S
H4925  C5021   1.111   .     S
H4927  C4948   1.097   .     S
H4928  C4985   1.153   .     S
N4929  C4933   1.175   .     S
C4931  C4981   1.420   .     S
C4931  O5178   1.353   .     S
H4932  C4985   1.069   .     S
C4933  C4956   1.355   .     S
C4934  C5050   1.499   .     S
C4934  C2695   1.495   1_565 S
C4934  C5465   1.555   1_554 S
H4935  C5003   1.095   .     S
C4936  C4989   1.396   .     S
C4936  C5009   1.383   .     S
C4936  C4978   1.442   .     S
C4937  H5034   1.095   .     S
C4937  H5337   1.132   1_554 S
C4938  H5019   1.069   .     S
C4938  C4994   1.555   .     S
C4939  H4965   1.150   .     S
C4939  C4940   1.561   .     S
C4939  H5040   1.098   .     S
C4940  C4986   1.524   .     S
H4943  C5003   1.109   .     S
C4945  C5002   1.491   .     S
C4945  C5013   1.368   .     S
C4946  C5006   1.364   .     S
C4946  C4988   1.389   .     S
C4947  C7609   1.442   .     S
C4947  C4961   1.525   .     S
C4947  C2724   1.589   1_565 S
C4948  H4959   1.012   .     S
C4948  C4990   1.513   .     S
C4948  H4969   1.103   .     S
C4949  C4974   1.430   .     S
H4950  C4996   1.078   .     S
C4951  H5010   1.109   .     S
C4951  C5002   1.533   .     S
C4952  C5028   1.378   .     S
H4953  C5003   1.111   .     S
C4954  C4994   1.551   .     S
C4955  C4956   1.396   .     S
C4957  C4986   1.421   .     S
O4958  C5006   1.448   .     S
O4958  C7614   1.390   .     S
H4960  C5007   1.110   .     S
C4961  C4995   1.371   .     S
C4961  C4967   1.368   .     S
H4964  C5031   1.072   .     S
H4968  C5001   1.100   .     S
C4971  O5049   1.394   .     S
C4971  C4996   1.362   .     S
C4972  H4984   1.101   .     S
C4972  C4990   1.559   .     S
C4972  H5047   1.096   .     S
C4972  H2858   1.138   1_565 S
C4975  C5024   1.519   .     S
C4975  C5021   1.541   .     S
H4976  C2772   1.122   1_565 S
H4977  C5024   1.091   .     S
C4979  C4993   1.420   .     S
C4989  O5000   1.379   .     S
C4989  C5023   1.446   .     S
C4990  C4995   1.533   .     S
H4991  C5028   1.161   .     S
C4993  C4996   1.430   .     S
C4998  C5007   1.336   .     S
C4998  C5043   1.512   .     S
C4998  C5489   1.359   1_554 S
O5000  C7713   1.413   .     S
C5004  C5043   1.521   .     S
C5004  H5026   1.102   .     S
C5004  H5429   1.097   1_554 S
C5004  H5510   1.111   1_554 S
H5005  C5027   1.067   .     S
C5007  C5015   1.383   .     S
C5013  C5028   1.392   .     S
C5015  C5424   1.434   1_554 S
H5016  C5096   1.087   .     S
H5018  C5027   1.133   .     S
C5023  O7635   1.394   .     S
C5023  C5505   1.398   1_554 S
C5025  H5041   1.059   .     S
C5025  H5190   1.151   .     S
C5025  C5038   1.529   .     S
C5027  C5043   1.501   .     S
C5030  H5035   1.110   .     S
C5030  C5038   1.520   .     S
C5031  H5036   1.110   .     S
C5042  C5050   1.386   .     S
C5042  C5393   1.386   1_554 S
C5043  C5418   1.528   1_554 S
N5045  C2841   1.120   1_565 S
H5048  C5393   1.101   1_554 S
O5049  C5445   1.440   1_554 S
C5050  C3392   1.426   1_564 S
N5051  C5084   1.147   .     S
C5052  N5142   1.179   .     S
C5052  C5072   1.406   .     S
C5053  C5175   1.396   .     S
C5053  C3072   1.404   1_565 S
C5053  O3001   1.367   1_565 S
C5054  H5083   1.100   .     S
C5054  H5092   1.125   .     S
C5054  C5105   1.528   .     S
C5054  H5108   1.082   .     S
H5055  C5168   1.095   .     S
C5056  C5147   1.440   .     S
C5056  C5090   1.340   .     S
C5056  C5139   1.388   .     S
H5057  C5169   1.061   .     S
N5058  C5147   1.138   .     S
C5059  O5144   1.376   .     S
C5059  C5095   1.407   .     S
C5059  C5175   1.366   .     S
C5060  C5138   1.523   .     S
C5060  H5065   1.117   .     S
C5060  H5114   1.130   .     S
C5060  H5119   1.144   .     S
C5061  C5128   1.385   .     S
C5061  C5105   1.520   .     S
C5061  C5093   1.390   .     S
H5062  C5172   1.049   .     S
H5063  C5165   1.105   .     S
H5064  C5172   1.080   .     S
C5066  C5102   1.364   .     S
C5066  H5076   1.114   .     S
C5066  C2989   1.350   1_565 S
C5067  C5085   1.390   .     S
C5067  C5138   1.502   .     S
C5067  C5135   1.367   .     S
H5068  C5103   1.088   .     S
H5070  C5152   1.096   .     S
O5071  C5109   1.369   .     S
C5072  C5077   1.403   .     S
O5073  C5180   1.379   .     S
O5073  C5090   1.390   .     S
C5074  H5164   1.116   .     S
C5074  C5143   1.356   .     S
C5074  C7920   1.393   .     S
H5075  C5117   1.113   .     S
C5077  O5112   1.411   .     S
C5077  C5078   1.434   .     S
C5078  O5098   1.379   .     S
O5079  C5139   1.408   .     S
O5079  C5143   1.390   .     S
H5080  C5107   1.112   .     S
H5081  C5125   1.084   .     S
C5082  H5094   1.023   .     S
C5082  H5140   1.073   .     S
C5082  H5124   1.030   .     S
C5082  C5105   1.524   .     S
C5084  C5183   1.376   .     S
C5085  C5106   1.373   .     S
C5085  C5150   1.476   .     S
H5086  C5156   1.088   .     S
H5088  C7925   1.096   .     S
H5089  C5096   1.161   .     S
C5090  C5118   1.409   .     S
C5091  C5118   1.382   .     S
C5091  C5113   1.425   .     S
C5091  C5122   1.398   .     S
C5093  C5125   1.379   .     S
C5093  C5150   1.554   .     S
C5095  C5163   1.416   .     S
C5095  O5115   1.418   .     S
C5096  H5116   1.116   .     S
C5096  C5176   1.566   .     S
H5097  C5169   1.075   .     S
O5098  C5149   1.397   .     S
H5099  C5172   1.045   .     S
H5100  C5159   1.157   .     S
H5101  C3035   1.123   1_565 S
C5102  C5149   1.417   .     S
C5102  O5112   1.390   .     S
C5103  C5160   1.359   .     S
C5103  C5151   1.331   .     S
C5104  C5143   1.413   .     S
C5104  O5137   1.394   .     S
C5104  C5165   1.404   .     S
C5105  C5156   1.546   .     S
C5106  H5136   1.120   .     S
C5106  C5129   1.376   .     S
C5107  H5148   1.033   .     S
C5107  C5150   1.525   .     S
C5107  C5138   1.518   .     S
C5109  C7925   1.397   .     S
C5109  C7614   1.463   .     S
H5110  C5156   1.122   .     S
C5113  C5139   1.402   .     S
C5113  O5137   1.421   .     S
O5115  C5155   1.364   .     S
C5117  H5145   1.133   .     S
C5117  H5134   1.117   .     S
C5117  C5138   1.557   .     S
C5118  O5158   1.389   .     S
C5120  H5185   1.118   .     S
C5120  C5149   1.412   .     S
C5120  C3052   1.422   1_565 S
C5121  C5127   1.411   .     S
C5121  C5128   1.396   .     S
C5121  O7929   1.383   .     S
C5122  N5133   1.186   .     S
O5123  C5127   1.370   .     S
O5123  C7827   1.362   .     S
C5125  C5127   1.412   .     S
N5126  C5188   1.163   .     S
C5128  H5131   1.101   .     S
C5129  C5146   1.446   .     S
C5129  O5178   1.360   .     S
C5130  C5163   1.402   .     S
C5130  N5132   1.137   .     S
C5135  H5157   1.100   .     S
C5135  C5146   1.415   .     S
C5141  C5297   1.509   .     S
C5141  H5177   1.114   .     S
C5141  H5166   1.090   .     S
C5141  H5153   1.119   .     S
O5144  C5162   1.393   .     S
C5150  C5156   1.519   .     S
C5151  C5296   1.431   .     S
C5152  C7898   1.357   .     S
C5152  C5170   1.332   .     S
C5154  C5159   1.385   .     S
C5154  C5297   1.509   .     S
C5154  C5323   1.382   .     S
C5155  C5159   1.422   .     S
C5155  C5162   1.399   .     S
O5158  C5184   1.393   .     S
C5160  C5278   1.435   .     S
C5160  O5182   1.386   .     S
H5161  C3066   1.098   1_565 S
C5162  C5298   1.367   .     S
C5163  C3072   1.388   1_565 S
C5165  C7756   1.387   .     S
O5167  C5170   1.367   .     S
O5167  C2887   1.416   1_565 S
C5168  H5171   1.162   .     S
C5168  H5173   1.177   .     S
C5169  H7936   1.093   .     S
C5169  C7797   1.487   .     S
C5170  C7890   1.469   .     S
H5174  C5321   1.080   .     S
C5175  C5335   1.377   .     S
C5176  C7795   1.502   .     S
C5176  C3035   1.573   1_565 S
C5176  C5834   1.527   1_565 S
C5179  C5184   1.398   .     S
C5179  H5186   1.103   .     S
C5179  C3019   1.385   1_565 S
C5180  C5184   1.427   .     S
C5180  C3026   1.371   1_565 S
H5181  C5189   1.087   .     S
C5183  C5313   1.386   .     S
H5187  C5238   1.166   .     S
C5189  C7797   1.509   .     S
C5189  H5219   1.075   .     S
C5189  H5331   1.116   .     S
C5191  C5321   1.399   .     S
C5191  O5325   1.420   .     S
C5191  C5205   1.402   .     S
C5192  N5262   1.151   .     S
C5192  C5273   1.406   .     S
C5193  C5208   1.573   .     S
C5193  C5268   1.581   .     S
C5193  C5261   1.530   .     S
C5193  C5215   1.601   .     S
C5194  C5293   1.535   .     S
C5194  H5326   1.126   .     S
C5195  O5290   1.375   .     S
C5195  C5199   1.441   .     S
C5195  C5196   1.388   .     S
C5196  C5254   1.378   .     S
C5196  C5301   1.354   .     S
C5197  C5218   1.534   .     S
C5197  C5283   1.349   .     S
C5197  C5257   1.404   .     S
H5198  C5230   1.133   .     S
C5199  C5273   1.378   .     S
C5199  O5217   1.371   .     S
C5200  H5253   1.114   .     S
C5200  C5248   1.436   .     S
C5200  C5239   1.377   .     S
H5201  C5215   1.123   .     S
H5202  C5260   1.093   .     S
H5203  C5212   1.122   .     S
C5204  C5447   1.384   .     S
C5204  C5295   1.398   .     S
C5204  C5226   1.367   .     S
C5205  C5260   1.393   .     S
C5205  O5302   1.384   .     S
H5206  C5240   1.156   .     S
H5207  C5264   1.114   .     S
C5208  C5260   1.433   .     S
C5208  C5289   1.392   .     S
H5209  C5298   1.084   .     S
H5210  C5285   1.078   .     S
H5211  C5261   1.121   .     S
C5212  C5334   1.531   .     S
C5212  H5306   1.059   .     S
C5212  C5293   1.619   .     S
H5213  C5259   1.089   .     S
C5214  C5273   1.415   .     S
C5214  C5301   1.412   .     S
C5214  O5255   1.386   .     S
C5215  H5249   1.117   .     S
C5215  H5272   1.065   .     S
H5216  C5232   1.069   .     S
O5217  C5282   1.400   .     S
C5218  C5259   1.610   .     S
C5218  C5250   1.579   .     S
C5218  C5258   1.523   .     S
H5220  C5320   1.090   .     S
C5221  C5285   1.563   .     S
C5221  C8052   1.494   .     S
C5221  C5239   1.506   .     S
C5221  C5281   1.564   .     S
H5222  C5318   1.108   .     S
H5223  C5327   1.038   .     S
H5224  C5275   1.129   .     S
H5225  C5299   1.107   .     S
C5226  N5237   1.162   .     S
H5227  C5299   1.091   .     S
C5228  C5258   1.442   .     S
C5228  C5311   1.557   .     S
C5228  C5487   1.354   .     S
H5229  C5232   1.044   .     S
C5230  H5307   1.114   .     S
C5230  C5243   1.517   .     S
C5230  H5280   1.045   .     S
C5232  H5329   1.125   .     S
C5232  C5297   1.492   .     S
N5233  C5335   1.140   .     S
H5234  C5252   1.135   .     S
H5235  C5240   1.108   .     S
O5236  C5278   1.372   .     S
C5238  C5304   1.528   .     S
C5238  H5251   1.137   .     S
C5238  C5297   1.486   .     S
C5239  C5339   1.402   .     S
C5240  H5312   1.072   .     S
C5240  C3101   1.571   1_565 S
H5241  C5250   1.137   .     S
O5242  C5295   1.394   .     S
O5242  C5248   1.412   .     S
C5243  C5257   1.493   .     S
C5243  C5299   1.568   .     S
C5243  C5250   1.559   .     S
O5244  C5322   1.416   .     S
O5244  C5301   1.353   .     S
H5245  C5279   1.135   .     S
H5246  C5268   1.104   .     S
H5247  C5259   1.099   .     S
C5248  C5474   1.400   .     S
C5250  H5308   1.081   .     S
C5252  H5305   1.106   .     S
C5252  H5319   1.122   .     S
C5252  C5311   1.510   .     S
C5254  N5499   1.144   .     S
H5256  C5263   1.070   .     S
C5257  C5264   1.361   .     S
C5258  C5500   1.384   .     S
C5259  C5311   1.539   .     S
C5261  H5269   1.107   .     S
C5261  H5292   1.111   .     S
C5263  C5511   1.510   .     S
C5263  H5274   1.127   .     S
C5263  C5430   1.536   .     S
C5264  C5282   1.336   .     S
H5265  C5291   1.098   .     S
H5266  C5327   1.112   .     S
H5267  C5277   1.098   .     S
C5268  H5288   1.131   .     S
C5268  C5304   1.554   .     S
H5270  C5283   1.174   .     S
C5275  H5472   1.111   .     S
C5275  C5511   1.539   .     S
C5275  H5502   1.157   .     S
C5276  C5283   1.408   .     S
C5276  C5282   1.412   .     S
C5276  O5290   1.393   .     S
C5277  C5324   1.540   .     S
C5277  H5333   1.091   .     S
C5277  H5309   1.097   .     S
C5278  C5279   1.407   .     S
C5279  C5296   1.399   .     S
C5281  H5317   1.145   .     S
C5281  H7988   1.064   .     S
C5281  C5443   1.481   .     S
C5284  C5313   1.407   .     S
C5284  O5302   1.408   .     S
C5285  H5303   1.055   .     S
C5285  H5287   1.099   .     S
H5286  C5291   1.161   .     S
C5289  C5304   1.539   .     S
C5289  C5321   1.399   .     S
C5291  H5314   1.129   .     S
C5291  C5293   1.511   .     S
H5294  C5318   1.143   .     S
C5295  C5488   1.401   .     S
C5296  C5324   1.529   .     S
C5298  C5323   1.386   .     S
C5299  H5300   1.105   .     S
C5304  C5323   1.496   .     S
H5310  C3077   1.082   1_565 S
C5311  C3234   1.596   1_565 S
C5313  O5325   1.381   .     S
H5315  C5327   1.157   .     S
C5316  N5332   1.124   .     S
C5318  C5508   1.518   .     S
C5320  C5334   1.529   .     S
C5322  C5330   1.403   .     S
C5330  H5479   1.081   .     S
C5336  H5477   1.089   .     S
C5336  H5368   1.082   .     S
C5336  C5451   1.561   .     S
C5336  H5374   1.090   .     S
H5337  C4937   1.132   1_556 S
H5338  C5418   1.109   .     S
C5339  C5352   1.314   .     S
C5339  C5443   1.599   .     S
C5340  C5490   1.394   .     S
C5340  C5430   1.523   .     S
O5341  C5342   1.395   .     S
O5341  C5448   1.343   .     S
C5342  C5450   1.376   .     S
C5342  C3414   1.385   1_565 S
H5343  C5345   1.172   .     S
H5344  C5462   1.109   .     S
C5345  H5351   1.076   .     S
C5345  C5371   1.554   .     S
C5345  H5434   1.136   .     S
C5346  C5357   1.357   .     S
C5346  C5480   1.521   .     S
C5346  C5436   1.397   .     S
O5347  C5461   1.416   .     S
O5347  C5369   1.411   .     S
H5348  C5428   1.095   .     S
C5349  O5375   1.390   .     S
C5349  C5415   1.396   .     S
C5349  C5362   1.422   .     S
O5350  C5396   1.404   .     S
O5350  C5442   1.369   .     S
C5352  C5474   1.355   .     S
C5352  H5493   1.103   .     S
C5353  C5469   1.381   .     S
C5353  O3397   1.386   1_565 S
C5353  C3420   1.395   1_565 S
C5354  C5373   1.426   .     S
C5354  N5361   1.151   .     S
C5356  C5359   1.346   .     S
C5356  H5390   1.131   .     S
C5356  C5363   1.436   .     S
C5357  H5358   1.122   .     S
C5357  C5470   1.382   .     S
C5359  C5435   1.381   .     S
C5359  C5480   1.549   .     S
C5360  H5404   1.053   .     S
C5360  C5451   1.549   .     S
C5360  H5401   1.111   .     S
C5360  H5410   1.072   .     S
C5362  C5403   1.386   .     S
C5362  O3410   1.430   1_565 S
C5363  C5369   1.411   .     S
C5363  O5427   1.372   .     S
H5364  C5495   1.085   .     S
C5365  O5384   1.377   .     S
C5365  C5431   1.420   .     S
C5366  C5397   1.397   .     S
C5366  C5488   1.425   .     S
C5366  C5414   1.396   .     S
H5367  C5418   1.056   .     S
C5369  C5370   1.392   .     S
C5370  H5421   1.103   .     S
C5370  C5435   1.377   .     S
C5371  C5486   1.538   .     S
C5371  C5412   1.548   .     S
C5371  C5391   1.528   .     S
C5372  H5463   1.120   .     S
C5372  C5465   1.400   .     S
C5372  C5448   1.390   .     S
C5373  C5449   1.421   .     S
C5373  C5394   1.384   .     S
O5375  H5441   0.973   .     S
H5376  C5412   1.140   .     S
C5377  C5466   1.367   .     S
C5377  C5475   1.416   .     S
C5377  C5445   1.401   .     S
H5378  C5422   1.133   .     S
O5379  C5469   1.443   .     S
O5379  C5381   1.365   .     S
O5380  C5470   1.366   .     S
O5380  C5475   1.396   .     S
C5381  C5452   1.415   .     S
C5381  C5500   1.456   .     S
H5382  C5437   1.155   .     S
H5383  C5446   1.069   .     S
H5385  C5462   1.136   .     S
H5386  C5403   1.119   .     S
C5387  H5497   1.105   .     S
C5387  H8262   1.121   .     S
C5387  H5457   1.049   .     S
C5387  C8137   1.526   .     S
H5388  C5495   1.086   .     S
H5389  C3404   1.072   1_565 S
C5391  H5398   1.062   .     S
C5391  H5467   1.117   .     S
C5391  C5494   1.578   .     S
H5392  C5412   1.122   .     S
C5393  C5481   1.400   .     S
C5393  H5048   1.101   1_556 S
C5393  C5042   1.386   1_556 S
C5394  C5461   1.380   .     S
C5394  O5427   1.393   .     S
C5395  C5422   1.541   .     S
C5395  C5462   1.547   .     S
C5395  C5411   1.518   .     S
C5395  C5428   1.642   .     S
C5396  C5399   1.369   .     S
C5396  C5449   1.396   .     S
C5397  C5447   1.406   .     S
C5397  O3358   1.465   1_565 S
C5399  C5473   1.462   .     S
C5399  C5461   1.347   .     S
H5400  C5412   1.079   .     S
H5402  C5428   1.123   .     S
C5403  C5405   1.393   .     S
C5405  C5411   1.418   .     S
C5405  C5413   1.473   .     S
C5407  N5498   1.146   .     S
C5407  C5505   1.436   .     S
H5408  C5419   1.076   .     S
H5409  C5419   1.103   .     S
C5411  C5415   1.356   .     S
C5413  C5418   1.470   .     S
C5413  C5489   1.537   .     S
C5413  C5422   1.570   .     S
C5414  N5423   1.154   .     S
C5415  H5425   1.097   .     S
H5416  C5437   1.081   .     S
H5417  C5468   1.088   .     S
C5418  C5043   1.528   1_556 S
C5419  C5480   1.575   .     S
C5419  C5451   1.580   .     S
H5420  C5500   1.096   .     S
C5422  H5438   1.114   .     S
C5424  O5456   1.368   .     S
C5424  C5492   1.435   .     S
C5424  C5015   1.434   1_556 S
H5426  C5431   1.106   .     S
C5428  H5440   1.068   .     S
H5429  C5004   1.097   1_556 S
C5430  C5439   1.482   .     S
C5431  C5486   1.412   .     S
C5432  C5468   1.414   .     S
C5432  C5508   1.491   .     S
C5432  C5439   1.358   .     S
H5433  C5492   1.107   .     S
C5435  C5451   1.516   .     S
C5436  C5496   1.359   .     S
C5436  C5506   1.512   .     S
C5437  C5443   1.526   .     S
C5437  C8137   1.504   .     S
C5439  C5459   1.409   .     S
C5442  C5459   1.418   .     S
C5442  C5485   1.427   .     S
C5443  C8146   1.555   .     S
C5444  C5450   1.426   .     S
C5444  N5453   1.159   .     S
C5445  O5049   1.440   1_556 S
C5445  C4911   1.420   1_556 S
C5446  H5491   1.128   .     S
C5446  C5480   1.564   .     S
C5446  C5506   1.552   .     S
C5447  O3106   1.429   1_565 S
C5448  C3252   1.436   1_565 S
C5449  O5460   1.423   .     S
C5450  C5469   1.359   .     S
C5452  C5487   1.388   .     S
C5452  O3397   1.445   1_565 S
N5454  C5473   1.157   .     S
C5455  C5475   1.370   .     S
C5455  O5507   1.402   .     S
C5455  C5484   1.371   .     S
O5456  C4917   1.385   1_556 S
N5458  C5466   1.137   .     S
C5459  H5483   1.076   .     S
O5460  C5485   1.410   .     S
C5462  H5478   1.099   .     S
C5465  C3332   1.405   1_565 S
C5465  C4934   1.555   1_556 S
C5468  C5485   1.388   .     S
C5470  C5482   1.437   .     S
C5471  C5481   1.412   .     S
C5471  C3392   1.392   1_565 S
C5471  O3347   1.408   1_565 S
C5474  O5476   1.451   .     S
O5476  C5488   1.432   .     S
C5482  C5496   1.378   .     S
C5482  O5507   1.387   .     S
C5484  C4911   1.427   1_556 S
C5484  C4303   1.404   1_556 S
C5486  C5501   1.391   .     S
C5487  H3418   1.071   1_565 S
C5489  C5492   1.373   .     S
C5489  C4998   1.359   1_556 S
C5490  C5511   1.540   .     S
C5494  C5501   1.501   .     S
C5495  C5506   1.500   .     S
H5503  C8243   1.070   .     S
C5505  C4917   1.386   1_556 S
C5505  C5023   1.398   1_556 S
H5510  C5004   1.111   1_556 S
C5512  C5590   1.376   .     S
C5512  C5676   1.531   .     S
C5512  C6210   1.391   1_554 S
C5513  O5565   1.388   .     S
C5513  C5593   1.315   .     S
C5513  C5557   1.419   .     S
C5514  H5633   1.072   .     S
C5514  C5630   1.558   .     S
C5514  C5659   1.586   .     S
C5514  H5529   1.097   .     S
H5515  C5554   1.086   .     S
H5516  C5524   1.110   .     S
H5517  C5524   1.092   .     S
C5518  H5585   1.110   .     S
C5518  H5586   1.043   .     S
C5518  C5544   1.526   .     S
C5518  H5537   1.119   .     S
H5519  C5571   1.159   .     S
C5520  H5547   1.087   .     S
C5520  H5632   1.097   .     S
C5520  H5645   1.128   .     S
C5520  C5556   1.523   .     S
H5521  C5572   1.138   .     S
O5522  C5671   1.413   .     S
O5522  C5646   1.439   .     S
C5523  C5546   1.462   .     S
C5523  H5580   1.100   .     S
C5523  C5579   1.492   .     S
C5523  H5670   1.077   .     S
C5524  H5594   1.144   .     S
C5524  C5544   1.500   .     S
C5525  C5619   1.347   .     S
C5525  C5659   1.557   .     S
C5525  C5575   1.403   .     S
H5526  C5572   1.071   .     S
H5527  C5613   1.095   .     S
N5528  C5651   1.169   .     S
H5530  C5672   1.115   .     S
C5531  C5675   1.435   .     S
C5531  C6271   1.399   1_554 S
C5531  C6273   1.379   1_554 S
C5532  C5668   1.516   .     S
C5532  C5672   1.496   .     S
C5532  C7609   1.520   1_545 S
C5533  H5631   1.053   .     S
C5533  C5630   1.517   .     S
C5533  C5609   1.547   .     S
C5533  H5665   1.082   .     S
C5534  O5620   1.394   .     S
C5534  C5615   1.406   .     S
C5534  C141    1.418   1_655 S
C5535  C5564   1.378   .     S
C5535  C5604   1.415   .     S
C5535  C5630   1.540   .     S
H5536  C5657   1.172   .     S
C5538  C5546   1.551   .     S
C5538  C5566   1.391   .     S
C5538  C5599   1.378   .     S
C5539  C5590   1.412   .     S
C5539  O5550   1.406   .     S
C5539  C6254   1.395   1_554 S
C5540  C5616   1.554   .     S
C5540  C5577   1.549   .     S
C5540  C5554   1.557   .     S
C5540  C5614   1.506   .     S
C5541  C5600   1.405   .     S
C5541  C6297   1.379   .     S
C5541  H5702   1.109   .     S
C5542  H5628   1.103   .     S
C5542  H6447   1.105   .     S
C5542  C5551   1.513   .     S
C5542  H177    1.082   1_655 S
H5543  C5593   1.070   .     S
C5544  C5567   1.592   .     S
C5544  C5566   1.509   .     S
H5545  C5610   1.102   .     S
C5546  C5664   1.556   .     S
C5546  C5567   1.464   .     S
C5548  C5556   1.547   .     S
C5548  C5605   1.368   .     S
C5548  C146    1.354   1_655 S
H5549  C5616   1.149   .     S
O5550  C6271   1.435   1_554 S
C5551  C6451   1.601   .     S
C5551  C904    1.491   1_655 S
C5551  C6131   1.527   1_554 S
C5552  C5643   1.392   .     S
C5552  C5571   1.423   .     S
C5552  O5650   1.352   .     S
H5553  C5610   1.134   .     S
C5554  H5637   1.146   .     S
C5554  H5587   1.189   .     S
H5555  C5590   1.092   .     S
C5556  C5640   1.568   .     S
C5556  C87     1.562   1_655 S
C5557  O5655   1.400   .     S
C5557  C5599   1.420   .     S
C5558  H5602   1.116   .     S
C5558  H5607   1.078   .     S
C5558  C5660   1.522   .     S
C5558  H5627   1.109   .     S
H5559  C6214   1.119   1_554 S
C5560  O5625   1.384   .     S
C5560  C5597   1.415   .     S
C5560  C5619   1.356   .     S
C5561  C5695   1.381   .     S
C5561  C5652   1.450   .     S
C5561  C5595   1.367   .     S
H5562  C5564   1.103   .     S
C5563  C5617   1.376   .     S
C5563  C5638   1.364   .     S
C5563  O5565   1.452   .     S
C5564  C5643   1.385   .     S
C5566  C5593   1.452   .     S
C5567  H5598   1.079   .     S
C5567  H5653   1.106   .     S
O5568  C5595   1.360   .     S
O5568  C5643   1.403   .     S
H5570  C5883   1.086   .     S
C5571  C5604   1.362   .     S
C5572  H5601   1.102   .     S
C5572  C5659   1.528   .     S
N5573  C5652   1.179   .     S
H5574  C5687   1.152   .     S
C5575  C5630   1.532   .     S
C5575  C5613   1.425   .     S
H5576  C5611   1.148   .     S
C5577  H5667   1.158   .     S
C5577  H5654   1.169   .     S
C5577  C5691   1.491   .     S
H5578  C5605   1.117   .     S
C5579  C5611   1.506   .     S
C5579  C5600   1.466   .     S
C5579  C5639   1.566   .     S
C5581  C5683   1.374   .     S
C5581  C5701   1.408   .     S
C5581  C5663   1.396   .     S
C5582  C5678   1.376   .     S
C5582  C5666   1.370   .     S
C5583  N5682   1.118   .     S
C5583  C182    1.437   1_655 S
H5584  C5668   1.100   .     S
H5588  C5657   1.170   .     S
H5589  C5639   1.100   .     S
H5591  C58     1.084   1_655 S
H5592  C5640   1.082   .     S
C5595  C5663   1.435   .     S
H5596  C5636   1.112   .     S
C5597  O5635   1.362   .     S
C5597  C5613   1.383   .     S
C5599  H5661   1.046   .     S
C5600  C5664   1.418   .     S
H5603  C5688   1.107   .     S
C5604  C5609   1.580   .     S
C5605  C5626   1.397   .     S
C5606  C5669   1.372   .     S
C5606  C5725   1.404   .     S
C5606  C5617   1.394   .     S
H5608  C149    1.120   1_655 S
C5609  C7699   1.542   1_545 S
C5609  C7743   1.524   1_545 S
C5610  C5676   1.503   .     S
C5610  H5686   1.097   .     S
C5611  H5642   1.078   .     S
C5611  H5662   1.080   .     S
H5612  C5639   1.138   .     S
C5614  C5685   1.406   .     S
C5614  C6112   1.374   1_554 S
C5615  C5697   1.352   .     S
C5615  C7747   1.384   1_545 S
C5616  H5658   1.128   .     S
C5616  H5649   1.121   .     S
C5617  O5655   1.400   .     S
H5618  C5619   1.128   .     S
O5620  C5626   1.386   .     S
H5621  C5685   1.108   .     S
C5622  H5629   1.115   .     S
C5622  C6252   1.506   1_554 S
C5622  H7622   1.084   1_545 S
C5622  H7668   1.135   1_545 S
C5623  C5696   1.357   .     S
C5623  C5674   1.390   .     S
C5623  C12     1.381   1_655 S
H5624  C5657   1.106   .     S
O5625  C6249   1.349   1_554 S
C5626  C93     1.418   1_655 S
H5634  C5640   1.096   .     S
O5635  C6256   1.358   1_554 S
C5638  C5646   1.396   .     S
C5638  C5651   1.422   .     S
C5639  H5690   1.142   .     S
C5640  H5677   1.137   .     S
O5641  C5678   1.368   .     S
O5641  C6498   1.380   .     S
H5644  C6289   1.080   .     S
C5646  C5669   1.406   .     S
H5647  C5668   1.075   .     S
H5648  C5672   1.144   .     S
O5650  C5663   1.360   .     S
N5656  C5675   1.177   .     S
C5657  C5659   1.594   .     S
C5660  C5687   1.564   .     S
C5660  C5666   1.551   .     S
C5664  C6412   1.373   .     S
C5666  C6435   1.359   .     S
C5668  H5693   1.105   .     S
C5669  O5713   1.353   .     S
C5671  C5883   1.399   .     S
C5671  C5859   1.395   .     S
C5672  H7623   1.101   1_545 S
C5673  H5680   1.111   .     S
C5673  H5699   1.104   .     S
C5673  C6104   1.541   1_554 S
C5673  C6262   1.546   1_554 S
C5674  C5759   1.401   .     S
C5674  O172    1.371   1_655 S
C5676  C5688   1.589   .     S
C5676  C5703   1.595   .     S
C5678  C6416   1.407   .     S
O5679  C5684   1.406   .     S
O5679  C6273   1.471   1_554 S
H5681  C7743   1.125   1_545 S
C5683  N5692   1.140   .     S
C5684  C6259   1.431   1_554 S
C5684  C7745   1.399   1_545 S
C5685  C6236   1.378   1_554 S
C5687  H6433   1.133   .     S
C5687  C6388   1.521   .     S
C5688  H6368   1.143   .     S
C5688  H6381   1.112   .     S
H5689  C58     1.043   1_655 S
C5691  C6112   1.496   1_554 S
C5691  C6232   1.507   1_554 S
C5691  C6242   1.488   1_554 S
H5694  C6131   1.106   1_554 S
C5695  C5701   1.428   .     S
C5695  O5858   1.410   .     S
C5696  C6290   1.442   .     S
C5696  O6318   1.407   .     S
C5697  N7593   1.126   1_545 S
H5698  C6232   1.103   1_554 S
H5700  C58     1.074   1_655 S
C5701  O5781   1.445   .     S
C5703  H6316   1.148   .     S
C5703  C6104   1.487   1_554 S
C5703  H6939   1.099   1_554 S
N5704  C5844   1.147   .     S
C5705  C5753   1.439   .     S
C5705  O5816   1.353   .     S
C5705  C5839   1.391   .     S
H5706  C5847   1.124   .     S
O5707  C5841   1.371   .     S
O5707  C5869   1.355   .     S
C5708  C5843   1.510   .     S
C5708  C5755   1.470   .     S
C5708  C5728   1.563   .     S
C5709  C5782   1.432   .     S
C5709  C5712   1.441   .     S
C5709  C5773   1.499   .     S
H5710  C5733   1.110   .     S
C5711  H5870   1.173   .     S
C5711  H5763   1.131   .     S
C5711  H5873   1.154   .     S
C5711  C5773   1.529   .     S
C5712  H5777   1.037   .     S
C5712  C5716   1.378   .     S
O5713  C5859   1.400   .     S
H5714  C5746   1.117   .     S
H5715  C5723   1.091   .     S
C5716  C5754   1.413   .     S
C5716  O5781   1.451   .     S
C5717  C5726   1.403   .     S
C5717  C6561   1.633   .     S
C5717  C6562   1.401   .     S
C5718  C5851   1.410   .     S
C5718  C5864   1.408   .     S
C5718  O5815   1.410   .     S
H5719  C5771   1.125   .     S
H5720  C5813   1.094   .     S
H5721  C5848   1.078   .     S
C5722  C5731   1.541   .     S
C5722  C5813   1.523   .     S
C5722  C5771   1.513   .     S
C5722  C5865   1.542   .     S
C5723  C5773   1.509   .     S
C5723  H5862   1.088   .     S
C5724  C5785   1.490   .     S
C5724  C5827   1.370   .     S
C5724  C5731   1.457   .     S
C5725  N5743   1.165   .     S
C5726  C5785   1.503   .     S
C5726  C5866   1.358   .     S
H5727  C5755   1.105   .     S
C5728  H5876   1.057   .     S
C5728  H5871   1.122   .     S
C5728  H5730   1.094   .     S
C5729  C5847   1.471   .     S
C5729  C5750   1.494   .     S
C5729  C5821   1.551   .     S
C5729  C5741   1.556   .     S
C5731  C5851   1.393   .     S
C5732  C5817   1.448   .     S
C5732  O5804   1.377   .     S
C5732  C5756   1.417   .     S
C5733  H6077   1.134   .     S
C5733  C6705   1.516   .     S
C5733  H6573   1.104   .     S
C5734  C5823   1.412   .     S
C5734  O7831   1.395   1_545 S
C5734  C7905   1.396   1_545 S
H5735  C6542   1.078   .     S
C5736  H5772   1.104   .     S
C5736  C5776   1.378   .     S
C5736  C5761   1.405   .     S
C5737  C5764   1.513   .     S
C5737  C5776   1.347   .     S
C5737  C5856   1.378   .     S
C5738  C5783   1.372   .     S
C5738  C5790   1.421   .     S
C5738  C5832   1.372   .     S
C5739  C5869   1.389   .     S
C5739  C5867   1.381   .     S
C5739  C5745   1.394   .     S
C5740  O5742   1.368   .     S
C5740  C5833   1.391   .     S
C5740  C5770   1.386   .     S
C5741  H5846   1.067   .     S
C5741  H5828   1.077   .     S
C5741  H5863   1.140   .     S
O5742  C5797   1.406   .     S
H5744  C5821   1.077   .     S
C5745  O5767   1.394   .     S
C5745  C5825   1.406   .     S
C5746  C5782   1.370   .     S
C5746  C5754   1.406   .     S
O5747  C5761   1.346   .     S
O5747  C5783   1.402   .     S
C5748  C5750   1.406   .     S
C5748  C7806   1.388   1_545 S
C5748  C7814   1.526   1_545 S
C5749  C6567   1.419   .     S
C5749  C5766   1.376   .     S
C5749  C347    1.383   1_655 S
C5750  C5839   1.369   .     S
H5751  C6569   1.058   .     S
C5752  C5825   1.410   .     S
C5752  C5818   1.399   .     S
C5752  C5830   1.394   .     S
C5753  C7806   1.395   1_545 S
C5753  O7831   1.356   1_545 S
C5754  O5858   1.401   .     S
C5755  H5760   1.135   .     S
C5756  C5872   1.376   .     S
C5756  H5811   1.086   .     S
C5757  C5779   1.435   .     S
C5757  C5759   1.417   .     S
C5757  C6290   1.407   .     S
C5758  C5770   1.416   .     S
C5758  C5881   1.382   .     S
C5759  O5804   1.409   .     S
C5761  C5820   1.428   .     S
C5762  C5768   1.373   .     S
C5762  C5844   1.478   .     S
C5764  C6542   1.468   .     S
C5764  C6569   1.480   .     S
C5764  C5848   1.520   .     S
N5765  C213    1.154   1_655 S
C5766  O5812   1.401   .     S
C5766  C5799   1.451   .     S
O5767  C5805   1.366   .     S
C5768  O7858   1.412   1_545 S
H5769  C5771   1.130   .     S
C5770  H7921   1.094   1_545 S
C5771  H5860   1.182   .     S
C5773  C5814   1.554   .     S
N5774  C5779   1.144   .     S
H5775  C5847   1.132   .     S
C5776  C5784   1.561   .     S
O5778  C5942   1.339   .     S
O5778  H5794   0.943   .     S
H5780  C5847   1.123   .     S
C5782  C5784   1.507   .     S
C5783  C5795   1.410   .     S
C5784  C5814   1.558   .     S
C5784  C5848   1.550   .     S
C5785  C5813   1.568   .     S
C5785  C5786   1.512   .     S
C5786  H5882   1.042   .     S
C5786  C6561   1.571   .     S
C5786  H5789   1.122   .     S
C5787  O5806   1.365   .     S
C5787  C5841   1.396   .     S
C5787  C357    1.411   1_655 S
O5788  C5829   1.378   .     S
O5788  C5833   1.369   .     S
C5790  N5826   1.166   .     S
C5791  C5829   1.398   .     S
C5791  C5823   1.385   .     S
C5791  C5798   1.446   .     S
H5792  C5807   1.138   .     S
H5793  C5839   1.106   .     S
C5795  C5796   1.417   .     S
C5795  O5875   1.431   .     S
C5796  C6495   1.415   .     S
C5796  C5802   1.402   .     S
C5797  C5829   1.392   .     S
C5797  C7905   1.364   1_545 S
C5798  N5831   1.118   .     S
C5799  O5815   1.390   .     S
C5799  C370    1.380   1_655 S
H5800  C5848   1.141   .     S
H5801  C5814   1.098   .     S
C5802  O6057   1.416   .     S
C5802  C5832   1.366   .     S
H5803  C5821   1.166   .     S
C5805  C5866   1.394   .     S
C5805  C5857   1.418   .     S
O5806  C5830   1.475   .     S
C5807  C5881   1.391   .     S
C5807  C5833   1.400   .     S
H5808  C322    1.072   1_655 S
H5809  C5851   1.115   .     S
H5810  C5813   1.144   .     S
O5812  C5864   1.390   .     S
C5814  H5845   1.079   .     S
O5816  C5823   1.392   .     S
C5817  C310    1.391   1_655 S
C5817  O172    1.372   1_655 S
C5818  N5879   1.171   .     S
C5819  C5874   1.513   .     S
C5819  H5836   1.084   .     S
C5819  H5853   1.133   .     S
C5819  H5852   1.145   .     S
C5820  C5856   1.413   .     S
C5820  O5875   1.370   .     S
C5821  C7814   1.559   1_545 S
H5822  C5865   1.080   .     S
C5824  C5859   1.423   .     S
C5825  O5868   1.399   .     S
C5827  H5861   1.088   .     S
C5827  C5864   1.390   .     S
C5830  C5869   1.428   .     S
C5832  O6033   1.402   .     S
C5834  C5883   1.333   .     S
C5834  C5176   1.527   1_545 S
H5837  C5877   1.067   .     S
H5838  C5865   1.051   .     S
H5840  C5843   1.120   .     S
C5841  C5993   1.382   .     S
H5842  C5866   1.106   .     S
C5843  H6559   1.116   .     S
H5849  C5877   1.105   .     S
H5850  C5877   1.067   .     S
H5854  C5865   1.039   .     S
N5855  C5867   1.158   .     S
C5856  H6494   1.166   .     S
C5857  C6562   1.392   .     S
C5857  O5868   1.383   .     S
C5872  C5874   1.553   .     S
C5872  C350    1.375   1_655 S
C5874  C5877   1.582   .     S
C5874  C322    1.534   1_655 S
C5878  N5880   1.157   .     S
C5878  C370    1.414   1_655 S
H5884  C5987   1.118   .     S
H5885  C6055   1.140   .     S
H5886  C6004   1.084   .     S
C5887  C6073   1.577   .     S
C5887  C6052   1.391   .     S
C5887  C5930   1.355   .     S
O5888  C5983   1.419   .     S
O5888  C5947   1.391   .     S
C5889  C5954   1.388   .     S
C5889  O5953   1.408   .     S
C5889  C5940   1.399   .     S
H5890  C6056   1.127   .     S
C5891  C5901   1.418   .     S
C5891  C5930   1.372   .     S
C5891  O5931   1.384   .     S
O5892  C5988   1.353   .     S
O5892  C5914   1.404   .     S
C5893  C5959   1.430   .     S
C5893  N6028   1.147   .     S
H5894  C5922   1.150   .     S
O5895  C5901   1.410   .     S
O5895  C5996   1.418   .     S
C5896  C5998   1.493   .     S
C5896  C5987   1.407   .     S
C5896  C5976   1.370   .     S
H5897  C5995   1.102   .     S
H5898  C5902   1.160   .     S
C5899  H5975   1.062   .     S
C5899  C5936   1.595   .     S
C5899  C6008   1.570   .     S
C5899  H5955   1.104   .     S
H5900  C5928   1.137   .     S
C5901  C5964   1.409   .     S
C5902  H5951   1.124   .     S
C5902  C6008   1.521   .     S
C5902  H5958   1.085   .     S
N5903  C6015   1.153   .     S
C5904  C5961   1.391   .     S
C5904  C5937   1.394   .     S
C5904  F8097   1.398   1_545 S
H5905  C5973   1.137   .     S
H5906  C5928   1.096   .     S
H5907  C462    1.140   1_655 S
H5908  C6020   1.133   .     S
H5909  C6071   1.093   .     S
H5910  C5986   1.119   .     S
C5911  C6021   1.517   .     S
C5911  H6029   1.134   .     S
C5911  H6013   1.110   .     S
C5911  C6048   1.566   .     S
H5912  C6704   1.125   .     S
C5913  C6001   1.420   .     S
C5913  C6008   1.538   .     S
C5913  C5950   1.391   .     S
C5914  C5982   1.396   .     S
C5914  C5983   1.380   .     S
O5915  C5963   1.459   .     S
O5915  C5954   1.370   .     S
H5916  C5995   1.098   .     S
N5917  C6023   1.157   .     S
C5918  H6053   1.056   .     S
C5918  H6279   1.145   .     S
C5918  H5924   1.145   .     S
C5918  C474    1.476   1_655 S
C5919  O5931   1.406   .     S
C5919  C5996   1.424   .     S
C5919  C6042   1.397   .     S
H5920  C6005   1.084   .     S
C5921  C6026   1.367   .     S
C5921  C6037   1.406   .     S
C5921  O6033   1.386   .     S
C5922  C6031   1.511   .     S
C5922  H6006   1.131   .     S
C5922  H6045   1.131   .     S
H5923  C6056   1.104   .     S
C5925  O6000   1.392   .     S
C5925  C5989   1.408   .     S
C5925  C6003   1.405   .     S
N5926  C6049   1.141   .     S
O5927  C6003   1.386   .     S
O5927  C5991   1.354   .     S
C5928  C5999   1.501   .     S
C5928  C6021   1.505   .     S
H5929  C6041   1.161   .     S
C5930  H5981   1.083   .     S
H5932  C5967   1.118   .     S
N5933  C5935   1.174   .     S
C5934  O5952   1.407   .     S
C5934  C6068   1.420   .     S
C5935  C5989   1.392   .     S
C5936  C5976   1.527   .     S
C5936  C5973   1.531   .     S
C5936  C6001   1.523   .     S
C5937  F6027   1.418   .     S
C5937  C5989   1.431   .     S
H5938  C6041   1.085   .     S
O5939  C5978   1.379   .     S
O5939  H6063   0.972   .     S
C5940  C6001   1.335   .     S
C5940  H5944   1.082   .     S
C5941  C6046   1.442   .     S
C5941  C6024   1.369   .     S
C5941  C5963   1.398   .     S
C5942  C5987   1.424   .     S
C5942  C5978   1.344   .     S
O5943  C6044   1.383   .     S
C5945  C5986   1.512   .     S
C5945  C6071   1.560   .     S
C5945  C376    1.580   1_655 S
C5945  C2532   1.511   1_645 S
N5946  C5979   1.163   .     S
C5947  C5965   1.386   .     S
C5947  C5988   1.424   .     S
H5948  C5964   1.103   .     S
N5949  C6024   1.175   .     S
C5950  H5957   1.097   .     S
C5950  C5954   1.391   .     S
O5952  C5980   1.313   .     S
O5953  C6014   1.400   .     S
C5956  C6025   1.415   .     S
C5956  C6048   1.538   .     S
C5956  C6004   1.387   .     S
C5959  C6014   1.407   .     S
C5959  C6039   1.419   .     S
H5960  C5967   1.114   .     S
C5961  C6003   1.396   .     S
C5961  C6035   1.424   .     S
H5962  C6060   1.092   .     S
C5963  C6014   1.371   .     S
C5964  C6052   1.365   .     S
C5965  C7997   1.380   1_545 S
C5965  H8017   1.151   1_545 S
H5966  C6056   1.168   .     S
C5967  C6048   1.494   .     S
C5967  H6061   1.137   .     S
C5968  C6010   1.409   .     S
C5968  C5983   1.407   .     S
C5968  C6015   1.395   .     S
C5969  C6604   1.446   .     S
C5969  C5980   1.487   .     S
C5969  O6018   1.340   .     S
H5970  C6017   1.122   .     S
C5971  C5985   1.350   .     S
C5971  C6022   1.377   .     S
C5971  C5999   1.514   .     S
C5972  H5992   1.082   .     S
C5972  C5976   1.405   .     S
C5972  C5978   1.409   .     S
C5973  C5998   1.499   .     S
C5973  H6012   1.095   .     S
C5974  C6243   1.392   .     S
C5974  C5996   1.425   .     S
C5974  C6134   1.424   .     S
C5977  C5991   1.439   .     S
C5977  C6017   1.418   .     S
C5977  O6000   1.366   .     S
C5979  C5982   1.382   .     S
C5980  C6055   1.362   .     S
C5982  C6044   1.351   .     S
C5984  H5990   1.055   .     S
C5984  C6007   1.429   .     S
C5984  C5988   1.397   .     S
C5985  C6021   1.529   .     S
C5985  C6026   1.356   .     S
C5986  H6030   1.132   .     S
C5986  H550    1.081   1_655 S
C5991  C6004   1.370   .     S
C5993  H6002   1.072   .     S
C5993  C435    1.333   1_655 S
H5994  C6062   1.122   .     S
C5995  C6031   1.498   .     S
C5995  H6051   1.142   .     S
H5997  C6005   1.129   .     S
C5998  C6005   1.507   .     S
C5998  C6020   1.553   .     S
C5999  C6663   1.495   .     S
C5999  C6704   1.608   .     S
C6005  H6038   1.125   .     S
C6007  C6031   1.515   .     S
C6007  C7997   1.394   1_545 S
C6008  C6041   1.539   .     S
H6009  C416    1.094   1_655 S
C6010  C6044   1.393   .     S
C6011  O6040   1.433   .     S
C6011  C6032   1.401   .     S
C6011  C8100   1.397   1_545 S
N6016  C8063   1.169   1_545 S
C6017  C6025   1.393   .     S
O6018  C6068   1.404   .     S
H6019  C6060   1.099   .     S
C6020  H6036   1.103   .     S
C6020  H6034   1.066   .     S
C6021  C6025   1.536   .     S
C6022  C6037   1.413   .     S
C6022  H6580   1.080   .     S
C6023  C6042   1.395   .     S
C6026  H6043   1.120   .     S
C6031  C7969   1.560   1_545 S
C6032  C6078   1.404   .     S
C6032  O6050   1.364   .     S
C6035  N6059   1.172   .     S
C6037  O6057   1.377   .     S
C6039  C6046   1.413   .     S
C6039  O6040   1.382   .     S
C6041  H6047   1.127   .     S
C6042  C6082   1.433   .     S
C6046  O6050   1.405   .     S
C6048  C6060   1.539   .     S
C6049  C6069   1.371   .     S
C6052  C6599   1.492   .     S
H6054  C6278   1.052   .     S
C6055  C6590   1.410   .     S
C6056  C6065   1.562   .     S
H6058  C404    1.116   1_655 S
C6060  H6067   1.079   .     S
C6062  H6070   1.130   .     S
C6062  C6073   1.492   .     S
C6062  C6065   1.544   .     S
H6064  C6278   1.157   .     S
C6065  C6582   1.467   .     S
C6065  C6623   1.578   .     S
H6066  C6071   1.117   .     S
C6068  C6069   1.402   .     S
C6071  H8106   1.147   1_545 S
H6072  C6107   1.175   .     S
C6073  C6735   1.550   .     S
C6073  C6686   1.585   .     S
H6074  C6663   1.050   .     S
H6075  C6160   1.109   .     S
H6076  C6160   1.050   .     S
C6078  H6189   1.112   .     S
C6078  C6101   1.369   .     S
H6079  C6107   1.107   .     S
H6080  C6087   1.148   .     S
H6081  C6121   1.128   .     S
C6082  C6134   1.409   .     S
C6082  O6172   1.391   .     S
O6083  C6175   1.372   .     S
O6083  H6119   0.961   .     S
C6084  H6187   1.176   .     S
C6084  H6096   1.058   .     S
C6084  C6196   1.544   .     S
C6084  C6094   1.539   .     S
C6085  C6089   1.361   .     S
C6085  C6231   1.369   .     S
C6085  C6249   1.417   .     S
H6086  C6176   1.040   .     S
C6087  H6151   1.110   .     S
C6087  C6129   1.497   .     S
C6087  C6234   1.555   .     S
C6088  H6241   1.093   .     S
C6088  C6143   1.373   .     S
C6088  C6162   1.420   .     S
C6089  N6220   1.180   .     S
H6090  C8117   1.142   1_545 S
C6091  C6934   1.373   .     S
C6091  H6216   1.120   .     S
C6091  C6150   1.402   .     S
C6092  C6177   1.384   .     S
C6092  C6128   1.430   .     S
C6092  C6199   1.540   .     S
C6093  C6239   1.462   .     S
C6093  H6139   1.110   .     S
C6093  C6192   1.342   .     S
C6094  C6111   1.588   .     S
C6094  C6123   1.559   .     S
C6094  C6106   1.550   .     S
H6095  C6144   1.107   .     S
O6097  C6185   1.370   .     S
O6097  C6254   1.398   .     S
H6098  C6157   1.083   .     S
H6099  C6176   1.097   .     S
C6100  O6204   1.388   .     S
C6100  C6226   1.376   .     S
C6100  C740    1.396   1_655 S
C6101  C8072   1.400   1_545 S
C6101  C8265   1.512   1_545 S
C6102  H6267   1.106   .     S
C6102  H6183   1.082   .     S
C6102  H8153   1.069   1_545 S
C6102  C8265   1.534   1_545 S
O6103  C6231   1.392   .     S
O6103  C6158   1.347   .     S
C6104  C6210   1.526   .     S
C6104  C6117   1.565   .     S
C6104  C5703   1.487   1_556 S
C6104  C5673   1.541   1_556 S
C6105  C6234   1.498   .     S
C6105  C6211   1.353   .     S
C6105  C6186   1.390   .     S
C6106  C6140   1.396   .     S
C6106  C6144   1.360   .     S
C6107  H6124   1.154   .     S
C6107  C6213   1.476   .     S
C6108  C6211   1.423   .     S
C6108  H6246   1.078   .     S
C6108  C738    1.390   1_655 S
H6109  C6237   1.111   .     S
H6110  C6186   1.074   .     S
C6111  H6179   1.129   .     S
C6111  H6130   1.126   .     S
C6111  H6127   1.114   .     S
C6112  C6157   1.370   .     S
C6112  C5614   1.374   1_556 S
C6112  C5691   1.496   1_556 S
C6113  C6158   1.381   .     S
C6113  O6171   1.399   .     S
C6113  C6144   1.391   .     S
C6114  C6143   1.388   .     S
C6114  C6198   1.531   .     S
C6114  C6212   1.363   .     S
H6115  C6222   1.083   .     S
C6116  C6140   1.400   .     S
C6116  H6203   1.079   .     S
C6116  C6158   1.382   .     S
C6117  C6126   1.384   .     S
C6117  C6258   1.377   .     S
N6118  C6152   1.131   .     S
C6120  C6251   1.436   .     S
C6120  O6136   1.381   .     S
C6120  C6164   1.398   .     S
C6121  C6198   1.507   .     S
C6121  C6234   1.519   .     S
C6121  H6155   1.036   .     S
H6122  C6214   1.098   .     S
C6123  H6188   1.084   .     S
C6123  H6181   1.131   .     S
C6123  H6148   1.101   .     S
H6125  C6265   1.139   .     S
C6126  C6276   1.401   .     S
C6126  C6262   1.483   .     S
C6128  C6161   1.388   .     S
C6128  C6250   1.545   .     S
C6129  C6211   1.492   .     S
C6129  C6160   1.605   .     S
C6129  C6278   1.496   .     S
C6131  H6275   1.077   .     S
C6131  C5551   1.527   1_556 S
C6131  C162    1.537   1_656 S
C6131  H5694   1.106   1_556 S
O6132  C6239   1.408   .     S
O6132  H6247   0.947   .     S
C6133  C6142   1.421   .     S
C6133  C6163   1.382   .     S
C6133  C6256   1.401   .     S
C6134  O6149   1.420   .     S
C6135  C6196   1.546   .     S
C6135  C6205   1.371   .     S
C6135  C6192   1.357   .     S
O6136  C6233   1.394   .     S
O6137  C6150   1.388   .     S
O6137  C6180   1.353   .     S
C6138  N6827   1.156   .     S
C6138  C6240   1.444   .     S
C6140  C6196   1.520   .     S
O6141  C6236   1.412   .     S
O6141  C6251   1.415   .     S
C6142  N6215   1.176   .     S
C6143  C6234   1.503   .     S
H6145  C6169   1.125   .     S
N6146  C6170   1.179   .     S
H6147  C6258   1.092   .     S
O6149  C6174   1.419   .     S
C6150  C6264   1.432   .     S
C6152  C6164   1.405   .     S
C6153  H6245   1.113   .     S
C6153  C6254   1.406   .     S
C6153  C6210   1.389   .     S
H6154  C6176   1.144   .     S
H6156  C6214   1.131   .     S
C6157  C6233   1.435   .     S
H6159  C6161   1.085   .     S
C6160  H6223   1.098   .     S
C6161  C6217   1.429   .     S
C6162  C6208   1.429   .     S
C6162  O6204   1.442   .     S
C6163  C6231   1.406   .     S
C6163  O6171   1.404   .     S
C6164  C6180   1.399   .     S
H6165  C8143   1.074   1_545 S
H6166  C6195   1.080   .     S
H6167  C6169   1.074   .     S
H6168  C6224   1.111   .     S
C6169  H6194   1.072   .     S
C6169  C6250   1.554   .     S
C6170  C6244   1.426   .     S
O6172  C6217   1.376   .     S
C6173  H6190   1.137   .     S
C6173  H6235   1.061   .     S
C6173  C6213   1.550   .     S
C6173  H6227   1.110   .     S
C6174  C6217   1.408   .     S
C6174  C6177   1.382   .     S
C6175  C6205   1.448   .     S
C6175  C6239   1.370   .     S
C6176  C6198   1.563   .     S
N6178  C6218   1.135   .     S
C6180  C6193   1.388   .     S
H6182  C6224   1.123   .     S
H6184  C6205   1.095   .     S
C6185  C6244   1.385   .     S
C6185  C6271   1.453   .     S
C6186  C742    1.388   1_655 S
H6191  C6195   1.149   .     S
C6192  C6213   1.551   .     S
C6193  O6274   1.399   .     S
C6193  C6240   1.403   .     S
C6195  C6196   1.581   .     S
C6195  C6213   1.542   .     S
H6197  C6222   1.107   .     S
C6198  C6224   1.507   .     S
C6199  C6237   1.558   .     S
C6200  O6248   1.427   .     S
C6200  C6244   1.388   .     S
C6200  C6273   1.389   .     S
C6201  C6242   1.403   .     S
C6201  C6252   1.545   .     S
O6202  C6226   1.409   .     S
O6202  C6208   1.302   .     S
N6206  C6243   1.152   .     S
H6207  C6257   1.099   .     S
C6208  C6212   1.354   .     S
H6209  C6212   1.057   .     S
C6210  C5512   1.391   1_556 S
C6214  C6262   1.534   .     S
C6214  H5559   1.119   1_556 S
C6218  C6221   1.457   .     S
H6219  C6222   1.085   .     S
C6221  C6238   1.384   .     S
C6221  C6226   1.393   .     S
C6222  C8159   1.543   1_545 S
C6224  H6230   1.092   .     S
H6225  C6257   1.089   .     S
H6228  C6232   1.112   .     S
C6232  C6252   1.542   .     S
C6232  C5691   1.507   1_556 S
C6232  H5698   1.103   1_556 S
C6233  C6236   1.393   .     S
C6236  C5685   1.378   1_556 S
C6237  C6250   1.481   .     S
C6237  H6253   1.111   .     S
C6238  C732    1.389   1_655 S
C6238  O8184   1.386   1_545 S
C6240  C6251   1.381   .     S
C6242  C6270   1.377   .     S
C6242  C5691   1.488   1_556 S
O6248  C6259   1.401   .     S
C6249  C6256   1.408   .     S
C6249  O5625   1.349   1_556 S
C6250  C6266   1.501   .     S
C6252  C6257   1.527   .     S
C6252  C5622   1.506   1_556 S
C6254  C5539   1.395   1_556 S
N6255  C6277   1.172   .     S
C6256  O5635   1.358   1_556 S
C6257  H8195   1.148   1_545 S
C6258  C6272   1.400   .     S
C6259  C5684   1.431   1_556 S
C6259  C8273   1.383   1_545 S
H6260  C6266   1.111   .     S
H6261  C6777   1.129   .     S
C6262  C5673   1.546   1_556 S
C6262  C6332   1.603   1_556 S
H6263  C6278   1.136   .     S
C6264  C6910   1.439   .     S
C6264  O6274   1.380   .     S
C6265  H8109   1.104   1_545 S
C6265  H8258   1.066   1_545 S
C6265  C8265   1.483   1_545 S
C6266  H6269   1.054   .     S
C6266  H8141   1.119   1_545 S
H6268  C8117   1.073   1_545 S
C6270  H6280   1.104   .     S
C6271  O5550   1.435   1_556 S
C6271  C5531   1.399   1_556 S
C6272  C6882   1.377   .     S
C6272  O6833   1.393   .     S
C6273  C5531   1.379   1_556 S
C6273  O5679   1.471   1_556 S
C6276  C6882   1.386   .     S
C6276  H6938   1.123   .     S
C6277  C6840   1.435   .     S
C6281  C6300   1.366   .     S
C6281  C6373   1.500   .     S
C6281  C747    1.392   1_655 S
C6282  C6448   1.416   .     S
C6282  C6321   1.375   .     S
C6282  O6342   1.434   .     S
H6283  C6451   1.049   .     S
O6284  C6420   1.449   .     S
O6284  C6354   1.336   .     S
O6285  C6353   1.369   .     S
O6285  C6297   1.413   .     S
C6286  C6361   1.380   .     S
C6286  N6401   1.180   .     S
H6287  C6372   1.114   .     S
C6288  C6340   1.418   .     S
C6288  C6404   1.386   .     S
C6289  C6356   1.575   .     S
C6289  C6388   1.583   .     S
C6289  H6338   1.113   .     S
C6290  O6418   1.373   .     S
C6291  C6425   1.388   .     S
C6291  C6441   1.516   .     S
N6292  C6360   1.160   .     S
H6293  C6366   1.108   .     S
H6294  C6351   1.112   .     S
C6295  H7100   1.102   .     S
C6295  C6354   1.413   .     S
H6296  C6320   1.085   .     S
C6297  C6319   1.410   .     S
H6298  C6394   1.083   .     S
C6299  H6329   1.164   .     S
C6299  C6425   1.371   .     S
C6300  C6363   1.507   .     S
C6300  C801    1.377   1_655 S
H6301  C6364   1.139   .     S
C6302  C6353   1.435   .     S
C6302  C6328   1.375   .     S
C6302  O6414   1.408   .     S
C6303  C7072   1.394   .     S
C6303  C6341   1.551   .     S
C6303  C854    1.379   1_655 S
C6304  O6318   1.376   .     S
C6304  C6392   1.366   .     S
C6304  C6406   1.439   .     S
C6305  C6378   1.554   .     S
C6305  H6385   1.126   .     S
C6305  H6358   1.070   .     S
C6305  H6323   1.124   .     S
H6306  C6333   1.085   .     S
N6307  C6393   1.165   .     S
C6308  C6416   1.400   .     S
C6308  H6426   1.098   .     S
C6308  C6435   1.373   .     S
C6309  C6396   1.356   .     S
C6309  O6326   1.431   .     S
C6309  C6925   1.420   1_554 S
C6310  C6415   1.390   .     S
C6310  C6353   1.366   .     S
C6310  C6478   1.451   .     S
H6311  C6332   1.096   .     S
C6312  C6399   1.352   .     S
C6312  C6313   1.388   .     S
C6312  H6343   1.101   .     S
C6313  C6340   1.378   .     S
C6313  C6356   1.568   .     S
H6314  C6432   1.117   .     S
C6315  N6400   1.173   .     S
C6315  C6396   1.385   .     S
H6317  C6333   1.132   .     S
C6319  O6414   1.331   .     S
C6319  C6412   1.390   .     S
C6320  C6406   1.377   .     S
C6320  C6395   1.452   .     S
C6321  C6393   1.409   .     S
C6321  C6371   1.376   .     S
C6322  C6352   1.436   .     S
C6322  C6362   1.363   .     S
C6322  O6330   1.407   .     S
H6324  C6382   1.137   .     S
C6325  H6409   1.122   .     S
C6325  H6344   1.104   .     S
C6325  C6373   1.533   .     S
C6325  C6378   1.538   .     S
O6326  C7079   1.378   .     S
H6327  C6375   1.079   .     S
C6328  C6360   1.458   .     S
C6328  C6365   1.367   .     S
O6330  C6365   1.424   .     S
H6331  C6347   1.109   .     S
C6332  H6336   1.090   .     S
C6332  C6262   1.603   1_554 S
C6332  H6937   1.102   1_554 S
C6333  H6398   1.063   .     S
C6333  C6363   1.574   .     S
O6334  C6416   1.369   .     S
O6334  C6537   1.375   .     S
C6335  H6390   1.164   .     S
C6335  H6355   1.123   .     S
C6335  C6363   1.538   .     S
C6335  C6373   1.566   .     S
N6337  C6380   1.134   .     S
H6339  C6351   1.142   .     S
C6340  C6388   1.517   .     S
C6341  C6382   1.571   .     S
C6341  C6430   1.517   .     S
C6341  C6375   1.526   .     S
O6342  C6898   1.424   1_554 S
C6345  C6369   1.538   .     S
C6345  C6428   1.404   .     S
C6345  C6357   1.358   .     S
C6346  C6371   1.398   .     S
C6346  C6990   1.372   .     S
C6346  O6982   1.384   .     S
C6347  H6411   1.093   .     S
C6347  H6436   1.066   .     S
C6347  C6405   1.515   .     S
C6348  C6432   1.306   .     S
C6348  C6953   1.437   .     S
C6348  C6437   1.568   .     S
C6349  H6438   1.091   .     S
C6349  H6446   1.113   .     S
C6349  H6431   1.119   .     S
C6349  C6356   1.563   .     S
H6350  C6377   1.139   .     S
C6351  H6376   1.102   .     S
C6351  C6378   1.528   .     S
C6352  C6428   1.394   .     S
C6352  O6572   1.389   .     S
C6356  C6364   1.542   .     S
C6357  C6362   1.375   .     S
C6357  C6437   1.502   .     S
C6359  C6427   1.416   .     S
C6359  C7078   1.426   .     S
C6359  H6429   1.104   .     S
C6361  C6424   1.337   .     S
C6361  C6420   1.415   .     S
C6362  H6389   1.044   .     S
C6363  C6366   1.504   .     S
C6364  H6374   1.078   .     S
C6364  H6384   1.173   .     S
C6365  C6415   1.437   .     S
C6366  H6402   1.129   .     S
C6366  H6419   1.045   .     S
H6367  C6412   1.112   .     S
C6369  C7000   1.499   .     S
C6369  C7101   1.526   .     S
C6369  C6394   1.578   .     S
H6370  C6794   1.131   1_554 S
C6371  O6410   1.399   .     S
C6372  H6422   1.135   .     S
C6372  C6403   1.499   .     S
C6372  C6819   1.562   1_554 S
C6373  C6387   1.560   .     S
C6375  H6445   1.140   .     S
C6375  H6407   1.093   .     S
C6377  C6441   1.521   .     S
C6377  H6397   1.102   .     S
C6378  C6395   1.541   .     S
C6380  C6453   1.403   .     S
C6382  H6408   1.066   .     S
C6382  H6443   1.107   .     S
O6383  C6424   1.397   .     S
O6383  C6399   1.350   .     S
H6386  C6430   1.086   .     S
C6387  C6392   1.394   .     S
C6387  C6395   1.391   .     S
C6388  C6435   1.484   .     S
H6391  C6942   1.124   .     S
C6392  H6417   1.126   .     S
C6394  H6434   1.069   .     S
C6394  H6413   1.150   .     S
C6396  C6817   1.379   1_554 S
C6399  C6404   1.442   .     S
C6403  C6425   1.524   .     S
C6403  C6904   1.526   1_554 S
C6403  C6908   1.502   1_554 S
C6405  C6427   1.499   .     S
C6405  C791    1.541   1_655 S
C6405  C748    1.548   1_655 S
C6406  O6418   1.399   .     S
O6410  C6439   1.372   .     S
C6415  O6572   1.418   .     S
H6421  C6430   1.103   .     S
H6423  C6428   1.115   .     S
C6427  C909    1.374   1_655 S
C6430  C7063   1.535   .     S
C6432  C6439   1.407   .     S
C6437  C7101   1.507   .     S
C6437  C6942   1.582   .     S
C6439  C7060   1.395   .     S
H6440  C7101   1.059   .     S
C6441  C3963   1.565   1_554 S
C6441  C6904   1.539   1_554 S
H6442  C6904   1.041   1_554 S
H6444  C791    1.096   1_655 S
C6448  C6990   1.365   .     S
C6448  O6960   1.427   .     S
H6449  C6987   1.148   .     S
H6450  C7040   1.078   .     S
C6451  H6924   1.122   1_554 S
C6451  H6935   1.066   1_554 S
C6452  O6539   1.397   .     S
C6452  C6491   1.411   .     S
C6452  C6519   1.405   .     S
C6453  C6462   1.367   .     S
C6453  C6485   1.379   .     S
H6454  C6474   1.059   .     S
C6455  C6533   1.397   .     S
C6455  N6513   1.167   .     S
O6456  C6510   1.327   .     S
O6456  C6480   1.412   .     S
H6457  C6538   1.129   .     S
H6458  C6474   1.133   .     S
H6459  C6562   1.071   .     S
H6460  C7135   1.083   .     S
C6461  C6516   1.439   .     S
C6461  N6543   1.185   .     S
C6462  O6565   1.432   .     S
C6462  C6501   1.403   .     S
H6463  C6500   1.112   .     S
C6464  C6528   1.404   .     S
C6464  C6472   1.527   .     S
C6464  C6506   1.381   .     S
H6465  C6569   1.084   .     S
N6466  C6478   1.143   .     S
O6467  C6501   1.386   .     S
C6468  O6535   1.370   .     S
C6468  C6509   1.375   .     S
C6468  C6479   1.430   .     S
H6469  C6503   1.076   .     S
C6470  H6489   1.128   .     S
C6470  C6514   1.380   .     S
H6471  C6500   1.086   .     S
C6472  C7116   1.585   .     S
C6472  C6554   1.581   .     S
C6472  C6538   1.472   .     S
H6473  C6553   1.143   .     S
C6474  C6705   1.539   .     S
C6474  H6515   1.130   .     S
C6475  C6511   1.399   .     S
C6475  C6493   1.370   .     S
C6475  C6507   1.356   .     S
H6476  C6549   1.159   .     S
C6477  C6496   1.522   .     S
C6477  C6500   1.568   .     S
C6477  C6481   1.491   .     S
C6477  C6503   1.515   .     S
C6479  C6506   1.471   .     S
C6479  O6526   1.379   .     S
C6480  C6514   1.410   .     S
C6481  H6523   1.060   .     S
C6481  C6497   1.568   .     S
C6481  H6541   1.116   .     S
O6482  C6491   1.356   .     S
O6482  C6493   1.355   .     S
H6483  C6540   1.045   .     S
C6484  N6547   1.154   .     S
C6484  C6560   1.446   .     S
C6485  C6548   1.400   .     S
C6485  O6526   1.416   .     S
N6486  C6495   1.157   .     S
C6487  C6516   1.405   .     S
C6487  O6527   1.420   .     S
H6488  C6503   1.157   .     S
H6490  C6500   1.137   .     S
C6491  C6540   1.395   .     S
C6493  C6499   1.410   .     S
C6496  C6536   1.379   .     S
C6496  C6540   1.395   .     S
C6497  C6538   1.587   .     S
C6497  C6528   1.534   .     S
C6497  C6536   1.453   .     S
C6498  C6537   1.394   .     S
C6499  O6539   1.358   .     S
C6499  C6545   1.384   .     S
C6501  C6533   1.401   .     S
O6502  C6563   1.394   .     S
O6502  C934    1.400   1_655 S
C6503  H6529   1.127   .     S
H6504  C6519   1.130   .     S
H6505  C6534   1.127   .     S
C6506  H6508   1.084   .     S
C6507  N6525   1.173   .     S
C6509  C6528   1.352   .     S
C6509  H6512   1.093   .     S
C6510  C6511   1.375   .     S
C6510  C6545   1.425   .     S
C6511  O6517   1.444   .     S
C6514  O6517   1.382   .     S
C6516  C6537   1.440   .     S
H6518  C6569   1.051   .     S
C6519  C6536   1.364   .     S
H6520  C6553   1.121   .     S
H6521  C6538   1.115   .     S
H6522  C6554   1.110   .     S
H6524  C6574   1.081   .     S
H6530  C6534   1.133   .     S
H6531  C7000   1.099   .     S
H6532  C6554   1.141   .     S
C6533  C6548   1.398   .     S
C6534  H6556   1.065   .     S
C6534  C6561   1.578   .     S
O6535  C6548   1.450   .     S
C6542  H6555   1.240   .     S
C6542  H6546   1.113   .     S
C6544  N6558   1.114   .     S
C6544  C6545   1.390   .     S
C6549  H6564   1.117   .     S
C6549  C6722   1.563   .     S
C6549  H6552   1.102   .     S
H6550  C6553   1.113   .     S
H6551  C6554   1.070   .     S
C6553  C6561   1.539   .     S
O6557  C7243   1.335   .     S
O6557  C7233   1.364   .     S
C6560  C6563   1.403   .     S
C6560  C7233   1.405   .     S
C6563  C7145   1.386   .     S
O6565  C6566   1.429   .     S
C6567  N6575   1.173   .     S
H6568  C6698   1.116   .     S
N6571  C7398   1.130   .     S
C6574  C7243   1.375   .     S
C6574  C7224   1.362   .     S
C6576  C7224   1.506   .     S
C6576  C7383   1.492   .     S
C6576  C6698   1.518   .     S
C6576  C7320   1.502   .     S
N6577  C6729   1.111   .     S
H6578  C6633   1.106   .     S
C6579  C6587   1.378   .     S
C6579  C6693   1.545   .     S
C6579  C6745   1.415   .     S
C6581  C6703   1.410   .     S
C6581  C6747   1.410   .     S
C6582  C6735   1.386   .     S
C6582  C6768   1.367   .     S
C6583  H6611   1.140   .     S
C6583  H6654   1.119   .     S
C6583  H6653   1.126   .     S
C6583  C6641   1.631   .     S
C6584  H6739   1.094   .     S
C6584  H6636   1.172   .     S
C6584  C6646   1.502   .     S
C6584  C6751   1.524   .     S
C6585  H6605   1.195   .     S
C6585  C6641   1.549   .     S
C6585  H6643   1.108   .     S
C6585  H6696   1.131   .     S
C6586  C6604   1.383   .     S
C6586  C6591   1.524   .     S
C6586  C6590   1.405   .     S
C6587  H6708   1.051   .     S
C6587  C6723   1.394   .     S
C6588  H6749   1.085   .     S
C6588  H6753   1.087   .     S
C6588  C6751   1.529   .     S
C6588  H6655   1.137   .     S
H6589  C6712   1.117   .     S
C6590  C6705   1.530   .     S
C6591  C6628   1.505   .     S
C6591  C6731   1.576   .     S
C6591  C6619   1.572   .     S
H6592  C6633   1.092   .     S
C6593  C6606   1.425   .     S
C6593  C6600   1.391   .     S
H6594  C6596   1.095   .     S
H6595  C6734   1.140   .     S
C6596  C6714   1.366   .     S
C6596  C6613   1.384   .     S
H6597  C6681   1.143   .     S
O6598  C6657   1.365   .     S
O6598  C6813   1.439   .     S
C6599  C6707   1.487   .     S
C6599  C6686   1.554   .     S
C6599  C6681   1.576   .     S
C6600  C6624   1.419   .     S
H6601  C6638   1.114   .     S
N6602  C6748   1.164   .     S
H6603  C6647   1.117   .     S
C6604  H6659   1.113   .     S
C6606  C6724   1.374   .     S
C6606  O6691   1.438   .     S
H6607  C6619   1.108   .     S
H6608  C6610   1.142   .     S
H6609  C6623   1.064   .     S
C6610  H6665   1.106   .     S
C6610  C6622   1.568   .     S
C6610  H6632   1.091   .     S
C6612  C7383   1.387   .     S
C6612  C6743   1.386   .     S
C6612  C6722   1.548   .     S
C6613  C6618   1.396   .     S
C6613  C6622   1.558   .     S
H6614  C6707   1.140   .     S
H6615  C6620   1.153   .     S
N6616  C6651   1.149   .     S
O6617  C6903   1.410   .     S
O6617  C6640   1.439   .     S
C6618  C6638   1.391   .     S
C6618  C6661   1.532   .     S
C6619  H6666   1.122   .     S
C6619  C6705   1.487   .     S
C6620  C6622   1.579   .     S
C6620  H6675   1.057   .     S
C6620  H6694   1.130   .     S
C6621  C6624   1.352   .     S
C6621  C6724   1.372   .     S
C6621  O6626   1.458   .     S
C6622  C6635   1.565   .     S
C6623  H6688   1.105   .     S
C6623  H6725   1.123   .     S
C6624  O6732   1.376   .     S
C6625  H6715   1.043   .     S
C6625  H6631   1.060   .     S
C6625  C6693   1.558   .     S
C6625  H6656   1.106   .     S
O6626  C6662   1.342   .     S
H6627  C6635   1.073   .     S
C6628  C6726   1.390   .     S
C6628  C6629   1.400   .     S
C6629  C6713   1.369   .     S
C6629  H6644   1.073   .     S
H6630  C7332   1.127   .     S
C6633  C7581   1.513   .     S
C6633  H7415   1.094   .     S
H6634  C6673   1.164   .     S
C6635  H6710   1.065   .     S
C6635  C6661   1.552   .     S
H6637  C6704   1.104   .     S
C6638  C6640   1.384   .     S
H6639  C6706   1.076   .     S
C6640  C6714   1.387   .     S
C6641  C6731   1.509   .     S
C6641  C6726   1.496   .     S
C6642  C6703   1.385   .     S
C6642  C6695   1.348   .     S
C6642  H6664   1.086   .     S
H6645  C6660   1.099   .     S
C6646  C6669   1.537   .     S
C6646  C6709   1.519   .     S
C6646  C6673   1.498   .     S
C6647  C6693   1.543   .     S
C6647  H6738   1.050   .     S
C6647  H6672   1.079   .     S
H6648  C6686   1.066   .     S
H6649  C6743   1.125   .     S
H6650  C6681   1.144   .     S
C6651  C6724   1.408   .     S
H6652  C6663   1.096   .     S
C6657  C6920   1.473   .     S
C6657  C6718   1.370   .     S
H6658  C6660   1.086   .     S
C6660  H6744   1.188   .     S
C6660  C1185   1.625   1_655 S
C6661  C6695   1.548   .     S
C6661  C6727   1.543   .     S
C6662  C6706   1.411   .     S
C6662  C6713   1.412   .     S
C6663  H6733   1.137   .     S
H6667  C6685   1.090   .     S
N6668  C6847   1.141   .     S
C6669  C6699   1.393   .     S
C6669  C6755   1.372   .     S
H6670  C6689   1.121   .     S
H6671  C6676   1.092   .     S
C6673  C6697   1.507   .     S
C6673  H6701   1.106   .     S
H6674  C6734   1.081   .     S
C6676  C6693   1.503   .     S
C6676  C6737   1.554   .     S
H6677  C6731   1.103   .     S
H6678  C6731   1.078   .     S
C6679  C7332   1.555   .     S
C6679  C6727   1.532   .     S
C6679  C7413   1.544   .     S
C6679  C6682   1.553   .     S
H6680  C6689   1.110   .     S
C6681  H6719   1.079   .     S
C6682  C6747   1.416   .     S
C6682  C6695   1.351   .     S
H6683  C6685   1.090   .     S
H6684  C6750   1.137   .     S
C6685  C6697   1.524   .     S
C6685  H6690   1.119   .     S
C6686  H6687   1.106   .     S
C6689  H6717   1.086   .     S
C6689  C6697   1.524   .     S
O6691  C7401   1.403   .     S
H6692  C6734   1.129   .     S
C6697  C6699   1.484   .     S
C6698  C6722   1.544   .     S
C6698  H6711   1.093   .     S
C6699  C6718   1.371   .     S
H6700  C6704   1.118   .     S
H6702  C6718   1.104   .     S
C6703  O6720   1.364   .     S
C6706  C6726   1.410   .     S
C6707  H6728   1.093   .     S
C6707  H6730   1.102   .     S
C6709  C6712   1.350   .     S
C6709  C6752   1.385   .     S
C6712  C1213   1.413   1_655 S
C6713  O6732   1.428   .     S
C6714  O6741   1.421   .     S
H6716  C6727   1.083   .     S
O6720  C6740   1.433   .     S
O6721  C6723   1.382   .     S
O6721  C6775   1.343   .     S
C6722  C6734   1.541   .     S
C6723  C6800   1.398   .     S
C6727  H7325   1.103   .     S
C6735  C6736   1.379   .     S
C6736  H6746   1.146   .     S
C6736  C6892   1.390   .     S
C6737  C6745   1.490   .     S
C6737  C6750   1.606   .     S
O6741  C6902   1.396   .     S
N6742  C6885   1.207   .     S
C6743  C7350   1.396   .     S
C6745  C6913   1.384   .     S
C6748  C1133   1.394   1_655 S
C6751  C6752   1.553   .     S
C6751  C6836   1.496   .     S
C6752  C1356   1.411   1_655 S
H6754  C6777   1.120   .     S
C6755  C6920   1.360   .     S
C6755  H6809   1.076   .     S
H6756  C1200   1.052   1_655 S
H6757  C7320   1.087   .     S
C6758  C6819   1.570   .     S
C6758  C6908   1.393   .     S
C6758  C6825   1.411   .     S
C6759  C6874   1.368   .     S
C6759  H6782   1.149   .     S
C6759  C6763   1.414   .     S
C6760  H6854   1.107   .     S
C6760  C6819   1.495   .     S
C6760  H6870   1.099   .     S
C6760  H6834   1.147   .     S
O6761  C6779   1.364   .     S
O6761  C6786   1.350   .     S
O6762  C6859   1.366   .     S
O6762  C6772   1.418   .     S
C6763  O6776   1.444   .     S
C6763  C6772   1.402   .     S
N6764  C6773   1.160   .     S
H6765  C6836   1.097   .     S
C6766  C6771   1.525   .     S
C6766  C6795   1.551   .     S
C6766  C6895   1.589   .     S
C6766  C6890   1.562   .     S
C6767  N6911   1.162   .     S
C6767  C6865   1.406   .     S
C6768  H6931   1.137   .     S
C6768  C6868   1.418   .     S
H6769  C6907   1.133   .     S
O6770  C6855   1.367   .     S
O6770  C6920   1.379   .     S
C6771  C6900   1.346   .     S
C6771  C6874   1.398   .     S
C6772  C6900   1.416   .     S
C6773  C6888   1.427   .     S
C6774  C6799   1.380   .     S
C6774  C6859   1.396   .     S
C6774  O6776   1.378   .     S
C6775  C6783   1.388   .     S
C6775  C6796   1.429   .     S
C6777  H6889   1.042   .     S
C6777  C6844   1.567   .     S
H6778  C6795   1.126   .     S
C6779  C6865   1.375   .     S
H6780  C6890   1.088   .     S
C6781  C6793   1.384   .     S
C6781  C6891   1.491   .     S
C6781  C6867   1.350   .     S
C6783  C6847   1.406   .     S
C6783  C6859   1.369   .     S
C6784  C6840   1.415   .     S
C6784  C6853   1.352   .     S
C6784  O6824   1.442   .     S
N6785  C6829   1.183   .     S
C6786  C6825   1.385   .     S
C6786  C6918   1.414   .     S
C6787  H6858   1.113   .     S
C6787  H6841   1.126   .     S
C6787  C6843   1.516   .     S
C6787  C6866   1.533   .     S
C6788  C6879   1.404   .     S
C6788  O6884   1.401   .     S
C6788  C6830   1.369   .     S
C6789  C6930   1.430   .     S
C6789  C6903   1.374   .     S
C6789  C6896   1.370   .     S
H6790  C6887   1.094   .     S
H6791  C6795   1.055   .     S
C6792  C6896   1.440   .     S
C6792  C6888   1.331   .     S
C6792  F6826   1.379   .     S
C6793  C6933   1.556   .     S
C6793  C6845   1.367   .     S
C6794  H6921   1.102   .     S
C6794  H6860   1.081   .     S
C6794  C6819   1.563   .     S
C6794  H6370   1.131   1_556 S
C6795  H6837   1.086   .     S
C6796  O6822   1.342   .     S
C6796  C6799   1.415   .     S
C6797  C6933   1.526   .     S
H6798  C6825   1.076   .     S
C6799  C6815   1.385   .     S
C6800  O6822   1.361   .     S
C6800  C6913   1.432   .     S
H6801  C6895   1.061   .     S
C6802  H6839   1.130   .     S
C6802  H6876   1.103   .     S
C6802  C6891   1.491   .     S
C6802  C6933   1.528   .     S
H6803  C6919   1.088   .     S
H6804  C6867   1.155   .     S
C6805  C6934   1.382   .     S
C6805  C6910   1.349   .     S
C6806  C6829   1.389   .     S
C6806  C6862   1.430   .     S
C6806  C6855   1.392   .     S
O6807  C6892   1.320   .     S
O6807  C6879   1.458   .     S
C6808  C6818   1.429   .     S
C6808  O6810   1.391   .     S
C6808  C6816   1.393   .     S
O6810  C6877   1.341   .     S
C6811  H6881   1.072   .     S
C6811  H6873   1.120   .     S
C6811  H1381   1.108   1_655 S
C6811  C1389   1.586   1_655 S
H6812  C6926   1.084   .     S
C6813  C6855   1.421   .     S
C6813  C6880   1.423   .     S
F6814  C6896   1.360   .     S
C6815  N6820   1.167   .     S
C6816  C6883   1.368   .     S
C6816  H6893   1.086   .     S
C6817  O6901   1.433   .     S
C6817  C6877   1.385   .     S
C6817  C6396   1.379   1_556 S
C6818  C6850   1.412   .     S
C6818  O6901   1.391   .     S
C6819  C6372   1.562   1_556 S
H6823  C6850   1.121   .     S
O6824  C6882   1.420   .     S
H6828  C6869   1.065   .     S
C6830  C6831   1.396   .     S
C6830  C6853   1.445   .     S
C6831  N6932   1.141   .     S
H6832  C6890   1.059   .     S
O6833  C6853   1.433   .     S
C6835  C6880   1.381   .     S
C6835  O7433   1.375   .     S
C6835  C6862   1.370   .     S
C6836  H6871   1.114   .     S
C6836  H6915   1.081   .     S
H6838  C6895   1.134   .     S
C6840  C6879   1.389   .     S
H6842  C6869   1.092   .     S
C6843  C6874   1.493   .     S
C6843  C6890   1.587   .     S
C6843  C6883   1.546   .     S
C6844  C6934   1.551   .     S
C6845  H7564   1.087   .     S
C6845  C6863   1.380   .     S
H6846  C1384   1.053   1_655 S
C6848  N6849   1.127   .     S
C6848  C6856   1.407   .     S
C6850  C6886   1.351   .     S
H6851  C1377   1.115   1_655 S
C6856  C6877   1.403   .     S
C6856  C6925   1.382   .     S
H6857  C6919   1.113   .     S
H6861  C6906   1.113   .     S
C6862  O7560   1.450   .     S
C6863  C6898   1.417   .     S
C6863  O6960   1.399   1_556 S
H6864  C6910   1.095   .     S
C6866  C6886   1.580   .     S
C6866  C6887   1.553   .     S
C6866  C6907   1.528   .     S
C6867  C6898   1.386   .     S
C6868  C6892   1.400   .     S
C6868  O6884   1.356   .     S
C6869  C6891   1.544   .     S
C6869  H6872   1.127   .     S
H6875  C6906   1.083   .     S
H6878  C6923   1.065   .     S
C6880  C6885   1.434   .     S
C6883  C6886   1.362   .     S
C6887  H6916   1.119   .     S
C6887  H6905   1.062   .     S
C6888  C6902   1.416   .     S
C6891  C6926   1.492   .     S
H6894  C6900   1.076   .     S
C6895  H6899   1.081   .     S
H6897  C6913   1.115   .     S
C6898  O6342   1.424   1_556 S
C6902  C6903   1.382   .     S
C6904  H6917   1.129   .     S
C6904  H6442   1.041   1_556 S
C6904  C6441   1.539   1_556 S
C6904  C6403   1.526   1_556 S
C6907  H6922   1.080   .     S
C6907  H6928   1.094   .     S
C6908  C6914   1.365   .     S
C6908  C6403   1.502   1_556 S
H6912  C7576   1.122   .     S
C6914  C6918   1.404   .     S
C6919  H7557   1.163   .     S
C6919  C7581   1.561   .     S
C6923  H7517   1.127   .     S
C6923  C1389   1.535   1_655 S
C6923  H1274   1.146   1_655 S
H6924  C6451   1.122   1_556 S
C6925  O7520   1.380   .     S
C6925  C6309   1.420   1_556 S
C6926  H6936   1.072   .     S
C6926  H7455   1.168   .     S
C6930  N7552   1.137   .     S
C6933  C7539   1.543   .     S
H6935  C6451   1.066   1_556 S
H6937  C6332   1.102   1_556 S
H6939  C5703   1.099   1_556 S
H6940  C6946   1.123   .     S
H6941  C7024   1.103   .     S
C6942  H7002   1.138   .     S
C6942  C6995   1.501   .     S
C6943  O6979   1.337   .     S
C6943  C7007   1.405   .     S
C6943  C6947   1.416   .     S
C6944  C7093   1.377   .     S
C6944  C6997   1.461   .     S
C6944  C6976   1.378   .     S
H6945  C6956   1.126   .     S
C6946  C6953   1.387   .     S
C6946  C7060   1.379   .     S
C6947  C6971   1.410   .     S
C6947  H6988   1.138   .     S
H6948  C7055   1.113   .     S
O6949  C7078   1.336   .     S
O6949  C7090   1.439   .     S
H6950  C7024   1.095   .     S
O6951  C7653   1.353   .     S
O6951  C6957   1.343   .     S
C6952  C7009   1.523   .     S
C6952  C7135   1.517   .     S
C6953  C6995   1.495   .     S
C6954  H7688   1.113   .     S
C6954  H7080   1.090   .     S
C6954  C7015   1.516   .     S
C6954  H7104   1.151   .     S
C6955  H7059   1.061   .     S
C6955  H7041   1.127   .     S
C6955  C7023   1.553   .     S
C6955  H6991   1.146   .     S
C6956  C7066   1.563   .     S
C6956  H6959   1.122   .     S
C6956  H6994   1.119   .     S
C6957  C7087   1.448   .     S
C6957  C7003   1.393   .     S
C6958  C7082   1.368   .     S
O6960  C6863   1.399   1_554 S
H6961  C6969   1.099   .     S
H6962  C7001   1.071   .     S
H6963  C7021   1.120   .     S
C6964  H7073   1.133   .     S
C6964  H7050   1.076   .     S
C6964  H7046   1.143   .     S
C6964  C6995   1.538   .     S
H6965  C7058   1.114   .     S
C6966  C6971   1.560   .     S
C6966  C7068   1.591   .     S
C6966  C6973   1.496   .     S
C6966  C7083   1.527   .     S
H6967  C7044   1.093   .     S
H6968  C6969   1.084   .     S
C6969  H6992   1.124   .     S
C6969  C6977   1.591   .     S
H6970  C7017   1.109   .     S
C6971  C6972   1.406   .     S
C6972  C7023   1.545   .     S
C6972  C6993   1.409   .     S
C6973  C7105   1.373   .     S
C6973  C7003   1.377   .     S
C6974  H7008   1.144   .     S
C6974  H7038   1.044   .     S
C6974  H7004   1.083   .     S
C6974  C6977   1.532   .     S
H6975  C7003   1.136   .     S
C6976  C6977   1.525   .     S
C6976  C7058   1.409   .     S
C6977  C7021   1.527   .     S
H6978  C7086   1.136   .     S
O6979  C7036   1.370   .     S
H6980  C7051   1.183   .     S
H6981  C6993   1.110   .     S
O6982  C7060   1.424   .     S
H6983  C7101   1.050   .     S
C6984  N7071   1.179   .     S
C6984  C7082   1.417   .     S
H6985  C7083   1.056   .     S
C6986  C7079   1.420   .     S
C6986  C7093   1.403   .     S
C6986  O7520   1.333   1_554 S
C6987  H7062   1.119   .     S
C6987  C7006   1.554   .     S
C6987  C7063   1.524   .     S
C6989  C7746   1.539   .     S
C6989  C7022   1.562   .     S
C6989  C7102   1.511   .     S
C6989  C7029   1.506   .     S
C6990  C7016   1.396   .     S
C6993  C7007   1.378   .     S
C6995  C7024   1.594   .     S
H6996  C7032   1.121   .     S
C6997  C7001   1.551   .     S
C6997  C7021   1.583   .     S
C6997  C7451   1.542   1_554 S
C6998  N7045   1.154   .     S
C6998  C7012   1.405   .     S
O6999  C7007   1.407   .     S
O6999  C7025   1.384   .     S
C7000  H7094   1.081   .     S
C7000  H7251   1.083   .     S
C7001  H7052   1.081   .     S
C7001  C7569   1.532   1_554 S
C7005  C7078   1.391   .     S
C7005  O7084   1.374   .     S
C7005  C1471   1.418   1_655 S
C7006  C7040   1.569   .     S
C7006  C7030   1.495   .     S
C7006  C7055   1.532   .     S
C7009  H7028   1.109   .     S
C7009  H7065   1.119   .     S
H7010  C7017   1.046   .     S
C7011  C7103   1.369   .     S
C7011  C7048   1.365   .     S
C7011  O7026   1.402   .     S
C7012  C7036   1.408   .     S
O7014  C7043   1.388   .     S
O7014  C7048   1.403   .     S
C7015  C7626   1.523   .     S
C7015  C7029   1.523   .     S
C7015  C7051   1.545   .     S
C7016  N7020   1.183   .     S
C7017  C7023   1.575   .     S
C7017  H7027   1.155   .     S
H7018  C7051   1.145   .     S
H7019  C7021   1.066   .     S
C7022  H7592   1.125   .     S
C7022  C7470   1.520   1_554 S
C7022  H8277   1.168   1_554 S
C7023  C7068   1.539   .     S
C7024  H7035   1.125   .     S
C7025  C7036   1.432   .     S
C7025  C7082   1.395   .     S
O7026  C7049   1.427   .     S
C7029  H7053   1.085   .     S
C7029  H7064   1.132   .     S
C7030  C7039   1.369   .     S
C7030  C7037   1.374   .     S
H7031  C7081   1.125   .     S
C7032  C7037   1.376   .     S
C7032  C7049   1.428   .     S
H7033  C7039   1.109   .     S
H7034  C7081   1.074   .     S
C7037  C7063   1.603   .     S
C7039  C7043   1.377   .     S
C7040  H7085   1.133   .     S
C7040  H7097   1.061   .     S
C7042  C7048   1.397   .     S
C7042  C7076   1.380   .     S
C7042  C7193   1.379   .     S
C7043  C7049   1.420   .     S
C7044  H7098   1.066   .     S
C7044  H7092   1.156   .     S
C7044  C7066   1.543   .     S
H7047  C7055   1.126   .     S
C7051  H7070   1.100   .     S
H7054  C7055   1.126   .     S
H7056  C7670   1.134   .     S
H7057  C7461   1.078   1_554 S
C7058  C7079   1.412   .     S
H7061  C7068   1.083   .     S
C7063  C7072   1.570   .     S
C7066  C7081   1.520   .     S
C7066  C7069   1.516   .     S
H7067  C7091   1.059   .     S
C7068  H7075   1.107   .     S
C7069  C7586   1.378   .     S
C7069  C7195   1.374   .     S
C7072  C7091   1.351   .     S
C7074  C7103   1.351   .     S
C7074  N1656   1.175   1_655 S
C7076  N7077   1.166   .     S
C7081  C7605   1.537   .     S
C7083  H7089   1.082   .     S
C7083  C7192   1.551   .     S
O7084  C7503   1.367   1_554 S
C7086  H7088   1.152   .     S
C7086  C7470   1.556   1_554 S
C7086  H7574   1.165   1_554 S
C7087  O7245   1.343   .     S
C7087  C7196   1.372   .     S
C7090  C7503   1.392   1_554 S
C7090  C7524   1.396   1_554 S
C7091  C1412   1.441   1_655 S
C7093  H7487   1.138   1_554 S
H7095  C7474   1.063   1_554 S
N7096  C7742   1.155   .     S
H7099  C7135   1.080   .     S
C7102  C7473   1.357   1_554 S
C7102  C7474   1.365   1_554 S
C7103  C7227   1.408   .     S
C7105  C7196   1.429   .     S
C7105  C7192   1.529   .     S
C7106  C7216   1.411   .     S
C7106  O7883   1.413   .     S
C7106  C7185   1.392   .     S
H7107  C7132   1.075   .     S
H7108  C7208   1.124   .     S
C7109  C7206   1.471   .     S
C7109  C7211   1.536   .     S
C7109  C7204   1.546   .     S
C7109  C1582   1.553   1_655 S
H7110  C7120   1.084   .     S
H7111  C7157   1.137   .     S
C7112  H7254   1.069   .     S
C7112  C7238   1.563   .     S
C7112  C7253   1.524   .     S
C7112  H7225   1.060   .     S
H7113  C7116   1.099   .     S
C7114  C7169   1.456   .     S
C7114  O7158   1.391   .     S
C7114  C7209   1.368   .     S
C7115  C7818   1.405   .     S
C7115  C7195   1.412   .     S
C7115  O7197   1.377   .     S
C7116  H7176   1.084   .     S
C7116  H7232   1.114   .     S
O7117  C7128   1.382   .     S
O7117  C7215   1.404   .     S
C7118  H7151   1.108   .     S
C7118  H7218   1.118   .     S
C7118  H7256   1.060   .     S
C7118  C7192   1.555   .     S
H7119  C7204   1.093   .     S
C7120  H7203   1.108   .     S
C7120  C7126   1.547   .     S
C7120  C7201   1.539   .     S
H7121  C7132   1.128   .     S
C7122  H7148   1.102   .     S
C7122  C7156   1.517   .     S
C7122  H7143   1.111   .     S
C7122  C7126   1.546   .     S
O7123  C7127   1.365   .     S
O7123  C7217   1.358   .     S
C7124  C7138   1.363   .     S
C7124  C7129   1.538   .     S
C7124  C7278   1.337   .     S
H7125  C7211   1.116   .     S
C7126  C7134   1.552   .     S
C7126  C7191   1.504   .     S
C7127  C7820   1.406   .     S
C7127  C7162   1.411   .     S
C7128  C7243   1.443   .     S
C7128  C7163   1.422   .     S
C7129  C8048   1.521   .     S
C7129  C7249   1.507   .     S
C7129  C7234   1.493   .     S
O7130  C7236   1.408   .     S
O7130  C7160   1.332   .     S
C7131  N7184   1.164   .     S
C7131  C7255   1.336   .     S
C7132  H7212   1.109   .     S
C7132  C7213   1.575   .     S
C7133  N7175   1.174   .     S
C7133  C7162   1.386   .     S
C7134  C7157   1.405   .     S
C7135  H7244   1.071   .     S
C7136  C7156   1.543   .     S
C7136  C7142   1.366   .     S
C7136  C7191   1.370   .     S
C7137  C7403   1.376   .     S
C7137  C7188   1.399   .     S
C7137  C7279   1.544   .     S
C7138  C7248   1.385   .     S
C7138  H7902   1.077   .     S
H7139  C7153   1.070   .     S
C7140  C7160   1.424   .     S
C7140  O7172   1.340   .     S
C7140  C7168   1.403   .     S
C7141  C7201   1.541   .     S
C7141  H7229   1.098   .     S
C7141  H7252   1.087   .     S
C7141  H7226   1.105   .     S
C7142  H7200   1.117   .     S
C7142  C7160   1.410   .     S
C7144  H7179   1.102   .     S
C7144  C7192   1.502   .     S
C7144  H7171   1.044   .     S
C7144  H7186   1.090   .     S
C7145  C7235   1.371   .     S
C7145  O1624   1.377   1_655 S
O7146  C7193   1.437   .     S
O7146  C7169   1.421   .     S
H7149  C7208   1.086   .     S
C7150  C7253   1.527   .     S
C7150  C7285   1.355   .     S
H7152  C7211   1.103   .     S
C7153  C7207   1.403   .     S
C7153  C7169   1.414   .     S
H7154  C7204   1.123   .     S
C7155  H7165   1.070   .     S
C7155  H7198   1.113   .     S
C7155  C7156   1.525   .     S
C7155  H7166   1.103   .     S
C7156  C7208   1.536   .     S
O7158  C7227   1.377   .     S
H7159  C7249   1.127   .     S
C7161  H7164   1.158   .     S
C7161  C7210   1.534   .     S
C7161  C7213   1.516   .     S
C7161  H7181   1.125   .     S
C7162  C7194   1.425   .     S
C7163  H7178   1.139   .     S
C7163  C7231   1.379   .     S
H7167  C7240   1.124   .     S
C7168  H7205   1.097   .     S
C7168  C7191   1.372   .     S
H7170  C7209   1.099   .     S
O7172  C7223   1.383   .     S
C7173  H7247   1.119   .     S
C7173  C7187   1.415   .     S
C7173  C7819   1.394   .     S
H7174  C7183   1.121   .     S
H7177  C7195   1.110   .     S
C7180  C7202   1.362   .     S
C7180  C7210   1.559   .     S
C7180  C7187   1.365   .     S
H7182  C7183   1.102   .     S
C7183  H7189   1.105   .     S
C7183  C7213   1.520   .     S
C7185  H7934   1.150   .     S
C7185  C7403   1.365   .     S
C7187  C7213   1.552   .     S
C7188  H7230   1.089   .     S
C7188  C7216   1.385   .     S
H7190  C7220   1.097   .     S
C7193  C7227   1.396   .     S
C7194  C7915   1.397   .     S
C7194  O7197   1.409   .     S
C7196  H7214   1.153   .     S
H7199  C7208   1.081   .     S
C7202  C7815   1.414   .     S
C7202  H7221   1.138   .     S
C7204  H7239   1.134   .     S
C7206  C7209   1.383   .     S
C7206  C7207   1.420   .     S
C7207  C7210   1.505   .     S
C7210  C7211   1.574   .     S
C7215  C7233   1.388   .     S
C7215  C7235   1.407   .     S
C7216  O7242   1.395   .     S
C7217  C7758   1.436   .     S
C7217  C7220   1.387   .     S
O7219  C7248   1.357   .     S
C7220  C7234   1.444   .     S
H7222  C7240   1.076   .     S
C7223  C7255   1.425   .     S
C7223  C7236   1.392   .     S
C7224  C7231   1.393   .     S
H7228  C7240   1.105   .     S
C7231  C7386   1.506   .     S
C7234  C7837   1.392   .     S
C7235  C1660   1.451   1_655 S
C7236  C7918   1.381   .     S
C7238  C7240   1.531   .     S
C7238  C7390   1.549   .     S
O7242  C7889   1.411   .     S
O7245  C7738   1.418   .     S
H7246  C7378   1.086   .     S
C7248  C7266   1.398   .     S
C7249  H7418   1.206   .     S
C7249  C7298   1.510   .     S
H7250  C1582   1.095   1_655 S
C7255  C7827   1.358   .     S
H7257  C7300   1.107   .     S
H7258  C7276   1.116   .     S
C7259  C7292   1.577   .     S
C7259  C7365   1.475   .     S
C7259  C7335   1.497   .     S
C7259  C7311   1.477   .     S
H7260  C7413   1.118   .     S
C7261  C7298   1.541   .     S
C7261  H7406   1.121   .     S
C7261  H7341   1.119   .     S
C7261  H7421   1.095   .     S
H7262  C7326   1.100   .     S
C7263  C7312   1.425   .     S
C7263  C7309   1.404   .     S
C7263  O7354   1.362   .     S
H7264  C7276   1.062   .     S
C7265  C7282   1.410   .     S
C7265  C7267   1.409   .     S
C7265  O7289   1.386   .     S
C7266  C7302   1.392   .     S
C7266  O7355   1.412   .     S
C7267  O7342   1.324   .     S
C7267  C7330   1.393   .     S
H7268  C7326   1.094   .     S
H7269  C7353   1.111   .     S
H7270  C7300   1.129   .     S
C7271  C7323   1.410   .     S
C7271  C7313   1.389   .     S
C7271  O7342   1.394   .     S
N7272  C7334   1.147   .     S
H7273  C7376   1.111   .     S
H7274  C7349   1.064   .     S
H7275  C7311   1.159   .     S
C7276  H7388   1.043   .     S
C7276  C7298   1.520   .     S
C7277  C7306   1.435   .     S
C7277  C7310   1.382   .     S
C7277  O7318   1.448   .     S
C7278  C7302   1.380   .     S
C7278  C7298   1.539   .     S
C7279  C7376   1.519   .     S
C7279  C7378   1.548   .     S
C7279  C1739   1.499   1_655 S
H7280  C7302   1.146   .     S
H7281  C7332   1.099   .     S
C7282  H7345   1.086   .     S
C7282  C7292   1.370   .     S
C7283  C7324   1.517   .     S
C7283  C7399   1.373   .     S
C7283  C7420   1.391   .     S
C7284  C7359   1.380   .     S
C7284  N7307   1.151   .     S
C7285  H7333   1.088   .     S
C7285  C7401   1.394   .     S
H7286  C7365   1.085   .     S
H7287  C7326   1.074   .     S
H7288  C7397   1.078   .     S
O7289  C7323   1.404   .     S
C7290  C7359   1.384   .     S
C7290  C7317   1.414   .     S
C7290  O7327   1.364   .     S
C7291  H7321   1.118   .     S
C7291  C7404   1.396   .     S
C7291  C7408   1.371   .     S
C7292  C7294   1.413   .     S
N7293  C7377   1.140   .     S
C7294  C7339   1.520   .     S
C7294  C7330   1.377   .     S
O7295  C7317   1.407   .     S
O7295  C7374   1.360   .     S
H7296  C7332   1.090   .     S
H7297  C7365   1.107   .     S
C7299  C7568   1.343   .     S
C7299  C7407   1.466   .     S
C7299  H7337   1.061   .     S
C7300  C7324   1.535   .     S
C7300  H7314   1.070   .     S
H7301  C7390   1.134   .     S
H7303  C7312   1.113   .     S
H7304  C7349   1.119   .     S
C7305  C7346   1.379   .     S
C7305  C7369   1.395   .     S
C7305  C7339   1.491   .     S
C7306  O7354   1.439   .     S
C7306  C7367   1.395   .     S
C7308  C7387   1.403   .     S
C7308  O7400   1.340   .     S
C7308  C7350   1.398   .     S
C7309  O7318   1.393   .     S
C7309  C7369   1.351   .     S
C7310  C7343   1.402   .     S
C7310  C7377   1.324   .     S
C7311  H7416   1.083   .     S
C7311  C7339   1.523   .     S
C7312  C7346   1.386   .     S
C7313  C7317   1.381   .     S
C7313  C7334   1.475   .     S
H7315  C7335   1.057   .     S
H7316  C7364   1.076   .     S
H7319  C7420   1.101   .     S
C7320  H7322   1.112   .     S
C7320  C7386   1.525   .     S
C7323  C7359   1.389   .     S
C7324  C7349   1.571   .     S
C7324  C7326   1.567   .     S
O7327  C7329   1.435   .     S
H7328  C7365   1.091   .     S
C7329  C7396   1.406   .     S
C7329  C7374   1.394   .     S
C7330  H7351   1.134   .     S
C7331  C7364   1.534   .     S
C7331  C7408   1.496   .     S
C7331  C7419   1.517   .     S
C7331  C7397   1.586   .     S
C7335  H7373   1.122   .     S
C7335  H7371   1.120   .     S
O7336  C7350   1.452   .     S
O7336  C7366   1.394   .     S
C7339  C7379   1.544   .     S
H7340  C7372   1.077   .     S
C7343  C7366   1.379   .     S
C7343  O7400   1.440   .     S
H7344  C7396   1.086   .     S
C7347  C7349   1.533   .     S
C7347  C7376   1.536   .     S
C7347  C7403   1.535   .     S
C7347  C7399   1.515   .     S
H7348  C7378   1.134   .     S
H7352  C7393   1.107   .     S
C7353  C7405   1.416   .     S
C7353  C1699   1.417   1_655 S
H7356  C7369   1.111   .     S
O7357  C7402   1.417   .     S
O7357  C7404   1.390   .     S
C7358  C7394   1.393   .     S
C7358  C7402   1.413   .     S
C7358  C7385   1.413   .     S
H7360  C7378   1.081   .     S
H7361  C7397   1.088   .     S
H7362  C7413   1.105   .     S
C7363  C7410   1.418   .     S
C7363  C7374   1.352   .     S
C7363  H7375   1.091   .     S
C7364  H7412   1.113   .     S
C7364  H7411   1.132   .     S
C7366  C7367   1.379   .     S
C7367  C7398   1.411   .     S
H7368  C7390   1.103   .     S
N7370  C7385   1.145   .     S
C7372  H7391   1.104   .     S
C7372  H7940   1.097   .     S
C7372  C7982   1.540   .     S
C7376  H7384   1.072   .     S
C7379  H7382   1.091   .     S
O7380  C7394   1.400   .     S
O7380  C7407   1.390   .     S
H7381  C7390   1.114   .     S
C7383  C7387   1.379   .     S
C7386  C7393   1.560   .     S
C7386  C7414   1.549   .     S
C7387  H7422   1.070   .     S
H7389  C7414   1.053   .     S
H7392  C7393   1.075   .     S
C7393  H7395   1.053   .     S
C7394  C7448   1.395   .     S
C7396  C7424   1.406   .     S
C7397  H7466   1.079   .     S
C7399  C7954   1.377   .     S
C7402  C7550   1.409   .     S
C7404  C7558   1.405   .     S
C7405  C7495   1.507   .     S
C7405  C1925   1.380   1_655 S
C7407  C7570   1.413   .     S
C7408  C7438   1.372   .     S
H7409  C7419   1.097   .     S
C7410  C7581   1.514   .     S
C7410  C7424   1.351   .     S
C7413  H7417   1.088   .     S
C7414  H1833   1.124   1_655 S
C7414  H1840   1.065   1_655 S
C7419  H7423   1.140   .     S
C7419  C7566   1.540   .     S
C7420  C7952   1.431   .     S
C7424  C7495   1.537   .     S
C7425  C7547   1.435   .     S
C7425  O7512   1.395   .     S
C7425  C7474   1.407   .     S
C7426  H7507   1.102   .     S
C7426  H7515   1.023   .     S
C7426  H7427   1.050   .     S
C7426  C7499   1.503   .     S
O7428  C7570   1.412   .     S
O7428  C7448   1.372   .     S
C7429  C7464   1.392   .     S
C7429  C7568   1.416   .     S
H7430  C7533   1.078   .     S
C7431  O7512   1.363   .     S
C7431  C7554   1.423   .     S
H7432  C7576   1.071   .     S
O7433  C7526   1.388   .     S
H7434  C7510   1.136   .     S
C7435  O7457   1.406   .     S
C7435  C7478   1.416   .     S
C7435  C7461   1.383   .     S
H7436  C7510   1.090   .     S
H7437  C7446   1.118   .     S
C7438  C7566   1.571   .     S
C7438  C7513   1.370   .     S
C7439  C7566   1.535   .     S
C7439  H7459   1.101   .     S
C7439  H7534   1.134   .     S
C7439  C7499   1.486   .     S
H7440  C7443   1.095   .     S
N7441  C7501   1.129   .     S
H7442  C7492   1.086   .     S
C7443  H7486   1.076   .     S
C7443  C7454   1.479   .     S
C7443  C7508   1.547   .     S
H7444  C7527   1.118   .     S
O7445  C7531   1.346   .     S
O7445  C7447   1.403   .     S
C7446  C7522   1.392   .     S
C7446  C7526   1.391   .     S
C7447  C7469   1.364   .     S
C7447  C7498   1.382   .     S
C7448  C7580   1.378   .     S
C7449  H7471   1.062   .     S
C7449  H7462   1.084   .     S
C7449  C7454   1.555   .     S
C7449  H7489   1.115   .     S
H7450  C7565   1.063   .     S
C7451  C7461   1.355   .     S
C7451  C7472   1.364   .     S
C7451  C6997   1.542   1_556 S
H7452  C7504   1.097   .     S
H7453  C7539   1.095   .     S
C7454  C7533   1.549   .     S
C7454  C7493   1.524   .     S
C7456  C8276   1.410   .     S
C7456  O7475   1.379   .     S
C7456  C7467   1.438   .     S
O7457  C7538   1.433   .     S
H7458  C7488   1.088   .     S
C7460  C7531   1.444   .     S
C7460  C7504   1.379   .     S
C7460  O7542   1.391   .     S
C7461  H7057   1.078   1_556 S
H7463  C7527   1.113   .     S
C7464  C7570   1.370   .     S
C7464  H7511   1.085   .     S
H7465  C7559   1.135   .     S
C7467  C8133   1.353   .     S
C7467  O7525   1.354   .     S
O7468  C7478   1.369   .     S
O7468  C7481   1.408   .     S
C7469  O7542   1.426   .     S
C7469  C7524   1.443   .     S
C7470  C7496   1.586   .     S
C7470  C7473   1.557   .     S
C7470  C7022   1.520   1_556 S
C7470  C7086   1.556   1_556 S
C7472  C7551   1.354   .     S
C7472  C7569   1.557   .     S
C7473  C7492   1.368   .     S
C7473  C7102   1.357   1_556 S
C7474  H7095   1.063   1_556 S
C7474  C7102   1.365   1_556 S
O7475  C7518   1.381   .     S
H7476  C7563   1.112   .     S
H7477  C7559   1.123   .     S
C7478  C7551   1.404   .     S
H7479  C7551   1.091   .     S
C7480  N7535   1.153   .     S
C7480  C7544   1.335   .     S
C7481  C7538   1.424   .     S
C7481  C7546   1.412   .     S
H7482  C7539   1.121   .     S
C7483  C7546   1.366   .     S
C7483  N7532   1.165   .     S
C7484  C7501   1.427   .     S
C7484  C7554   1.388   .     S
H7485  C7514   1.083   .     S
H7487  C7093   1.138   1_556 S
C7488  C7499   1.536   .     S
C7488  H1993   1.072   1_655 S
C7488  H1947   1.075   1_655 S
H7490  C7527   1.088   .     S
H7491  C7496   1.078   .     S
C7492  C7547   1.388   .     S
C7493  C7528   1.387   .     S
C7493  C7521   1.408   .     S
C7494  C7555   1.541   .     S
C7494  C2005   1.540   1_655 S
C7494  C1986   1.559   1_655 S
C7494  C1925   1.496   1_655 S
C7495  C7555   1.533   .     S
C7495  C7565   1.535   .     S
C7496  H7567   1.127   .     S
C7496  H7578   1.108   .     S
C7497  H7506   1.104   .     S
C7497  C7508   1.540   .     S
C7497  C7502   1.546   .     S
C7497  H7500   1.063   .     S
C7498  C7562   1.436   .     S
C7498  C7503   1.395   .     S
C7499  C7505   1.480   .     S
C7502  C7527   1.519   .     S
C7502  C7522   1.499   .     S
C7502  C7510   1.547   .     S
C7503  C7090   1.392   1_556 S
C7503  O7084   1.367   1_556 S
C7504  C7521   1.383   .     S
C7505  C8111   1.394   .     S
C7505  C8202   1.388   .     S
C7508  C7529   1.484   .     S
C7508  C7521   1.499   .     S
H7509  C7510   1.118   .     S
C7513  H7571   1.094   .     S
C7513  C7558   1.389   .     S
C7514  C7529   1.375   .     S
C7514  C7516   1.408   .     S
C7516  C7526   1.428   .     S
C7516  O7560   1.350   .     S
C7518  C7556   1.432   .     S
C7518  C7544   1.364   .     S
O7519  C7554   1.357   .     S
O7519  C7547   1.382   .     S
O7520  C6986   1.333   1_556 S
C7522  C7529   1.386   .     S
H7523  C7559   1.092   .     S
C7524  C7561   1.351   .     S
C7524  C7090   1.396   1_556 S
O7525  C7556   1.370   .     S
C7528  H7548   1.121   .     S
C7528  C7531   1.369   .     S
H7530  C7555   1.091   .     S
C7533  H7545   1.108   .     S
C7533  H7543   1.077   .     S
C7536  C7539   1.591   .     S
C7536  C7576   1.583   .     S
H7537  C7555   1.134   .     S
C7538  C7544   1.387   .     S
O7541  C7558   1.367   .     S
O7541  C7550   1.399   .     S
C7546  C7556   1.374   .     S
H7549  C2005   1.158   1_655 S
C7550  C7580   1.383   .     S
H7553  C7565   1.085   .     S
C7559  C7569   1.505   .     S
C7561  N7573   1.138   .     S
C7562  N1964   1.139   1_655 S
C7563  H7582   1.083   .     S
C7563  C7569   1.549   .     S
C7563  H7583   1.140   .     S
C7565  C7581   1.519   .     S
C7566  C8202   1.491   .     S
C7569  C7001   1.532   1_556 S
H7572  C2005   1.091   1_655 S
H7574  C7086   1.165   1_556 S
N7579  C1912   1.184   1_655 S
C7580  C8223   1.414   .     S
C7584  H7588   1.056   .     S
C7584  H7737   1.127   .     S
C7584  H7744   1.114   .     S
C7584  C7726   1.575   .     S
H7585  C7719   1.109   .     S
C7586  C7605   1.526   .     S
C7586  C7927   1.413   .     S
C7587  H7706   1.086   .     S
C7587  H7733   1.173   .     S
C7587  C7709   1.500   .     S
C7587  H7739   1.056   .     S
H7589  C7778   1.089   .     S
H7590  C7677   1.113   .     S
C7591  C7728   1.331   .     S
C7591  C7678   1.394   .     S
C7591  H7634   1.140   .     S
N7593  C5697   1.126   1_565 S
H7594  C7609   1.087   .     S
N7595  C7616   1.145   .     S
H7596  C7609   1.116   .     S
H7597  C7607   1.112   .     S
C7598  H7718   1.120   .     S
C7598  C2038   1.340   1_655 S
C7598  C2124   1.397   1_655 S
C7599  C7671   1.376   .     S
C7599  C7660   1.362   .     S
C7599  C7721   1.564   .     S
H7600  C7672   1.033   .     S
C7601  C7625   1.401   .     S
C7601  C7897   1.387   .     S
C7601  O7924   1.410   .     S
N7602  C7698   1.117   .     S
H7603  C7725   1.111   .     S
C7604  C7721   1.463   .     S
C7604  C7649   1.376   .     S
C7604  C7630   1.391   .     S
C7605  C7679   1.535   .     S
C7605  C7670   1.548   .     S
H7606  C7677   1.025   .     S
C7607  H7730   1.089   .     S
C7607  C7617   1.538   .     S
C7607  H7674   1.108   .     S
H7608  C7645   1.133   .     S
C7609  C5532   1.520   1_565 S
O7610  C7648   1.363   .     S
O7610  C7731   1.400   .     S
C7611  C7713   1.361   .     S
C7611  C7626   1.364   .     S
C7611  H7643   1.137   .     S
H7612  C7714   1.064   .     S
H7613  C7671   1.100   .     S
C7614  C7666   1.383   .     S
H7615  C7699   1.109   .     S
C7616  C7655   1.438   .     S
C7617  C7638   1.541   .     S
C7617  C7630   1.502   .     S
C7617  C7662   1.471   .     S
H7618  C7699   1.095   .     S
H7619  C7662   1.052   .     S
C7620  H7665   1.096   .     S
C7620  C7625   1.384   .     S
C7620  C7724   1.363   .     S
C7621  O7644   1.419   .     S
C7621  C7705   1.433   .     S
C7621  C7651   1.371   .     S
H7622  C5622   1.084   1_565 S
H7623  C5672   1.101   1_565 S
C7624  C7727   1.362   .     S
C7624  C7746   1.391   .     S
C7624  H8278   1.116   1_554 S
C7625  O7717   1.410   .     S
C7626  C7746   1.426   .     S
H7627  C7632   1.110   .     S
C7628  C7731   1.364   .     S
C7628  O7637   1.402   .     S
C7628  C7671   1.379   .     S
H7629  C7702   1.091   .     S
C7630  C7632   1.358   .     S
H7631  C7725   1.116   .     S
C7632  C7642   1.390   .     S
H7633  C7720   1.100   .     S
O7635  C7727   1.378   .     S
H7636  C7732   1.128   .     S
O7637  C7646   1.386   .     S
C7638  H7640   1.118   .     S
C7638  H7639   1.106   .     S
C7638  H7667   1.142   .     S
H7641  C8129   1.129   1_554 S
C7642  O7644   1.396   .     S
C7642  C7652   1.422   .     S
C7645  C7726   1.483   .     S
C7645  H7704   1.126   .     S
C7645  H7658   1.102   .     S
C7646  C7648   1.439   .     S
C7646  C7655   1.368   .     S
N7647  C7663   1.144   .     S
C7648  C8127   1.336   1_554 S
C7649  H7659   1.094   .     S
C7649  C7652   1.399   .     S
H7650  C7719   1.084   .     S
C7651  C7738   1.428   .     S
C7651  C7885   1.438   .     S
C7652  O7700   1.384   .     S
C7653  C7729   1.395   .     S
C7653  C7738   1.448   .     S
H7654  C7714   1.087   .     S
C7655  C8274   1.401   1_554 S
H7656  C7702   1.085   .     S
H7657  C7743   1.055   .     S
C7660  C7693   1.412   .     S
C7660  C7686   1.542   .     S
H7661  C7719   1.096   .     S
C7662  C7721   1.503   .     S
C7662  H7723   1.079   .     S
C7663  C7669   1.436   .     S
C7664  C7708   1.419   .     S
C7664  O7717   1.391   .     S
C7664  C7695   1.379   .     S
C7666  H7694   1.162   .     S
C7666  C7863   1.431   .     S
H7668  C5622   1.135   1_565 S
C7669  C7716   1.395   .     S
C7669  C7691   1.427   .     S
C7670  H7749   1.093   .     S
C7670  C7726   1.556   .     S
C7672  C7676   1.422   .     S
C7672  C7681   1.389   .     S
H7673  C7732   1.113   .     S
C7675  O7683   1.341   .     S
C7675  C7681   1.433   .     S
C7675  C7680   1.412   .     S
C7676  C7679   1.388   .     S
C7676  C7726   1.490   .     S
C7677  H7711   1.092   .     S
C7677  C7686   1.558   .     S
C7678  C7682   1.386   .     S
C7678  C8112   1.550   1_554 S
C7679  C7680   1.409   .     S
C7680  H7692   1.109   .     S
C7681  O7687   1.337   .     S
C7682  C7720   1.377   .     S
C7682  C8271   1.497   1_554 S
O7683  C7684   1.423   .     S
C7684  C7690   1.387   .     S
C7684  C7691   1.419   .     S
C7685  C7690   1.363   .     S
C7685  N7689   1.119   .     S
C7686  C7725   1.541   .     S
O7687  C7691   1.395   .     S
C7690  C7696   1.422   .     S
C7693  C7731   1.402   .     S
C7693  H7710   1.099   .     S
C7695  C7698   1.379   .     S
C7695  C2044   1.428   1_655 S
C7696  C7716   1.399   .     S
C7696  O7707   1.373   .     S
C7697  C7702   1.534   .     S
C7697  C7732   1.518   .     S
C7697  C2038   1.520   1_655 S
C7697  C2142   1.571   1_655 S
C7699  H7703   1.057   .     S
C7699  C5609   1.542   1_565 S
O7700  C7705   1.340   .     S
H7701  C7751   1.078   .     S
C7702  H7734   1.076   .     S
C7705  C7729   1.419   .     S
O7707  C7728   1.389   .     S
C7708  C7935   1.388   .     S
C7708  O7924   1.375   .     S
C7709  C7750   1.560   .     S
C7709  C7724   1.552   .     S
C7709  C7714   1.539   .     S
O7712  C7747   1.478   .     S
O7712  C2159   1.373   1_655 S
C7713  C7727   1.417   .     S
C7714  H7736   1.052   .     S
C7715  C7720   1.415   .     S
C7715  C7728   1.442   .     S
C7715  O7735   1.344   .     S
C7716  O7735   1.381   .     S
C7719  C8177   1.572   1_554 S
C7721  C7725   1.570   .     S
H7722  C7732   1.104   .     S
C7724  C7930   1.419   .     S
C7729  C7742   1.390   .     S
H7740  C7745   1.071   .     S
H7741  C7743   1.104   .     S
C7743  H5681   1.125   1_565 S
C7743  C5609   1.524   1_565 S
C7745  C7752   1.349   .     S
C7745  C5684   1.399   1_565 S
C7747  C24     1.438   1_665 S
C7747  C5615   1.384   1_565 S
H7748  C7750   1.167   .     S
C7750  C7816   1.537   .     S
C7750  H7838   1.048   .     S
C7751  C2159   1.394   1_655 S
C7751  C2168   1.396   1_655 S
C7752  C8177   1.574   1_554 S
C7752  C8248   1.415   1_554 S
C7753  C7914   1.581   .     S
C7753  C7790   1.518   .     S
C7753  C8048   1.518   .     S
C7753  C7837   1.533   .     S
H7754  C7908   1.145   .     S
H7755  C7876   1.081   .     S
C7756  C7920   1.394   .     S
C7756  C7895   1.550   .     S
H7757  C7841   1.084   .     S
C7758  C7803   1.405   .     S
C7758  O7801   1.313   .     S
H7759  C7811   1.171   .     S
N7760  C7851   1.129   .     S
O7761  H7762   0.917   .     S
O7761  C7829   1.403   .     S
H7763  C7830   1.091   .     S
H7764  C7835   1.139   .     S
H7765  C7806   1.135   .     S
C7766  C7781   1.348   .     S
C7766  H8108   1.050   .     S
C7766  C7836   1.447   .     S
H7767  C7878   1.172   .     S
H7768  C7833   1.097   .     S
C7769  C7886   1.509   .     S
C7769  H7917   1.063   .     S
C7769  H7907   1.127   .     S
C7769  C7816   1.495   .     S
H7770  C7779   1.085   .     S
H7771  C7876   1.129   .     S
N7772  C7857   1.161   .     S
C7773  C7802   1.362   .     S
C7773  C7915   1.426   .     S
C7773  C7820   1.390   .     S
C7774  C7877   1.378   .     S
C7774  H7784   1.067   .     S
C7774  C7890   1.343   .     S
N7775  C7885   1.135   .     S
H7776  C7908   1.096   .     S
H7777  C7778   1.158   .     S
C7778  H7928   1.129   .     S
C7778  C7899   1.520   .     S
C7779  H7807   1.131   .     S
C7779  C7895   1.556   .     S
C7779  H7808   1.091   .     S
C7780  C7821   1.382   .     S
C7780  C7812   1.437   .     S
C7780  O7868   1.417   .     S
C7781  C7791   1.421   .     S
C7781  C8092   1.541   .     S
C7782  H7912   1.030   .     S
C7782  C7913   1.523   .     S
C7782  H2332   1.163   1_655 S
C7782  H2375   1.069   1_655 S
C7783  C7827   1.423   .     S
C7783  O7929   1.408   .     S
C7783  C7918   1.406   .     S
H7785  C7830   1.076   .     S
H7786  C7867   1.105   .     S
H7787  O7817   1.022   .     S
H7788  C7911   1.108   .     S
H7789  C7795   1.177   .     S
C7790  H7834   1.041   .     S
C7790  H7826   1.107   .     S
C7790  H8102   1.081   .     S
C7791  C7910   1.510   .     S
C7791  C7833   1.384   .     S
C7792  C7901   1.420   .     S
C7792  C7799   1.384   .     S
C7792  C7913   1.500   .     S
C7793  C7867   1.593   .     S
C7793  C7842   1.531   .     S
C7793  C7920   1.498   .     S
C7793  C7878   1.551   .     S
C7794  C7857   1.355   .     S
C7794  C7810   1.450   .     S
C7794  C7832   1.352   .     S
C7795  H7870   1.102   .     S
C7795  H7922   1.121   .     S
H7796  C7879   1.100   .     S
C7797  C7847   1.522   .     S
C7797  C7898   1.576   .     S
H7798  C7911   1.062   .     S
C7799  C7814   1.561   .     S
C7799  C7903   1.402   .     S
H7800  C7911   1.100   .     S
O7801  C7820   1.422   .     S
C7802  N7813   1.167   .     S
C7803  H7893   1.121   .     S
C7803  C7837   1.382   .     S
O7804  C7882   1.443   .     S
O7804  C8079   1.398   .     S
H7805  C7932   1.077   .     S
C7806  C5753   1.395   1_565 S
C7806  C5748   1.388   1_565 S
H7809  C7903   1.152   .     S
C7810  C7889   1.381   .     S
C7810  O7883   1.399   .     S
C7811  H7881   1.079   .     S
C7811  C7913   1.557   .     S
C7811  H7874   1.104   .     S
C7812  O7933   1.362   .     S
C7812  C2174   1.390   1_655 S
C7814  C7908   1.538   .     S
C7814  C5748   1.526   1_565 S
C7814  C5821   1.559   1_565 S
C7815  C7819   1.442   .     S
C7815  O7875   1.378   .     S
C7816  C7930   1.453   .     S
C7816  C7896   1.526   .     S
O7817  C7836   1.435   .     S
C7818  C7927   1.388   .     S
C7818  O7824   1.403   .     S
C7819  O7865   1.400   .     S
C7821  H7828   1.118   .     S
C7821  C7891   1.357   .     S
C7822  C7849   1.409   .     S
C7822  C7896   1.426   .     S
C7822  H7894   1.038   .     S
N7823  C7843   1.177   .     S
O7824  C7915   1.416   .     S
H7825  C7867   1.099   .     S
C7829  C7836   1.409   .     S
C7829  C7833   1.393   .     S
C7830  C7899   1.576   .     S
C7830  H7862   1.115   .     S
O7831  C5734   1.395   1_565 S
O7831  C5753   1.356   1_565 S
C7832  O7868   1.430   .     S
C7832  C7916   1.388   .     S
C7835  H7904   1.115   .     S
C7835  C7895   1.508   .     S
C7835  H7872   1.097   .     S
O7839  C7844   1.416   .     S
O7839  C7846   1.353   .     S
H7840  C7847   1.174   .     S
C7841  C7846   1.395   .     S
C7841  C7884   1.366   .     S
C7842  C7863   1.386   .     S
C7842  C7925   1.386   .     S
C7843  C7848   1.430   .     S
C7844  C7850   1.397   .     S
C7844  C7848   1.410   .     S
O7845  C7849   1.383   .     S
O7845  C7850   1.424   .     S
C7846  C7849   1.439   .     S
C7847  H7919   1.057   .     S
C7847  C7910   1.550   .     S
C7848  C7860   1.339   .     S
C7850  C7856   1.391   .     S
C7851  C7918   1.408   .     S
C7852  C7882   1.413   .     S
C7852  O8036   1.341   .     S
C7852  C7903   1.404   .     S
H7853  C7876   1.109   .     S
C7854  H7931   1.143   .     S
C7854  H7892   1.096   .     S
C7854  H7906   1.099   .     S
C7854  C7886   1.535   .     S
C7855  N7864   1.184   .     S
C7855  C7856   1.412   .     S
C7856  C7859   1.392   .     S
O7858  C7890   1.432   .     S
O7858  C5768   1.412   1_565 S
C7859  O7875   1.411   .     S
C7859  C7860   1.408   .     S
C7860  O7865   1.406   .     S
H7861  C7914   1.086   .     S
C7863  C7899   1.580   .     S
H7866  C7879   1.102   .     S
C7867  C7899   1.513   .     S
H7869  C7879   1.077   .     S
H7871  C7878   1.174   .     S
F7873  C2547   1.309   1_655 S
C7876  C7888   1.457   .     S
C7877  C7910   1.540   .     S
C7877  C7898   1.383   .     S
C7878  C7895   1.542   .     S
C7879  C7888   1.550   .     S
H7880  C7901   1.137   .     S
C7882  C7901   1.360   .     S
C7884  C7896   1.379   .     S
C7884  C7886   1.527   .     S
C7886  C7911   1.527   .     S
H7887  C7897   1.145   .     S
C7888  C7891   1.546   .     S
C7888  C7932   1.531   .     S
C7889  C7926   1.438   .     S
C7891  C2336   1.391   1_655 S
C7897  C7930   1.404   .     S
N7900  C7909   1.157   .     S
C7905  C7909   1.425   .     S
C7905  C5734   1.396   1_565 S
C7905  C5797   1.364   1_565 S
C7908  C7913   1.557   .     S
C7910  C7950   1.578   .     S
C7914  H8014   1.124   .     S
C7914  H7923   1.151   .     S
C7916  C7926   1.424   .     S
C7916  O7933   1.396   .     S
H7921  C5770   1.094   1_565 S
C7926  C1672   1.437   1_655 S
C7927  H7937   1.107   .     S
C7932  H2379   1.077   1_655 S
C7932  C2317   1.586   1_655 S
C7935  C2120   1.406   1_655 S
C7935  C2382   1.388   1_655 S
H7938  C8032   1.080   .     S
C7939  C8049   1.601   .     S
C7939  C7970   1.374   .     S
C7939  C8075   1.364   .     S
H7941  C7993   1.135   .     S
H7942  C7984   1.127   .     S
C7943  H8060   1.084   .     S
C7943  C8058   1.496   .     S
C7943  C8062   1.530   .     S
C7943  H7996   1.089   .     S
C7944  O7947   1.393   .     S
C7944  C7954   1.385   .     S
C7944  C7952   1.437   .     S
H7945  C7950   1.138   .     S
H7946  C8046   1.072   .     S
O7947  C7999   1.422   .     S
C7948  C8029   1.392   .     S
C7948  F7965   1.398   .     S
C7948  C8008   1.435   .     S
H7949  C8042   1.092   .     S
C7950  C8092   1.529   .     S
C7950  H8085   1.098   .     S
C7951  C7980   1.404   .     S
C7951  N8082   1.187   .     S
C7952  O8019   1.360   .     S
C7953  C8058   1.498   .     S
C7953  C7955   1.390   .     S
C7953  C7985   1.363   .     S
C7954  H8057   1.112   .     S
C7955  C8062   1.505   .     S
C7955  C8042   1.369   .     S
C7956  C8158   1.376   .     S
C7956  C8095   1.490   .     S
C7956  C8016   1.361   .     S
O7957  C7995   1.399   .     S
O7957  C8023   1.386   .     S
H7958  C8068   1.081   .     S
H7959  C8013   1.084   .     S
C7960  N8071   1.145   .     S
C7960  C8022   1.401   .     S
H7961  C8011   1.117   .     S
H7962  C8046   1.093   .     S
H7963  C8037   1.118   .     S
H7964  C8048   1.095   .     S
H7966  C8052   1.092   .     S
C7967  C8013   1.408   .     S
C7967  C8066   1.362   .     S
C7967  C7982   1.502   .     S
H7968  C8076   1.092   .     S
C7969  H7990   1.115   .     S
C7969  H8093   1.064   .     S
C7969  C8050   1.507   .     S
C7969  C6031   1.560   1_565 S
C7970  C8050   1.550   .     S
C7970  C8018   1.374   .     S
N7971  C7998   1.195   .     S
H7972  C8068   1.111   .     S
H7973  C8088   1.134   .     S
H7974  C8056   1.085   .     S
C7975  C8020   1.417   .     S
C7975  C8008   1.432   .     S
C7975  O8053   1.389   .     S
C7976  C8029   1.346   .     S
C7976  C8020   1.379   .     S
C7976  C8063   1.400   .     S
C7977  C7987   1.406   .     S
C7977  C8034   1.391   .     S
C7977  O8096   1.434   .     S
C7978  C8092   1.533   .     S
C7978  H8083   1.091   .     S
C7978  H8044   1.131   .     S
C7978  H8033   1.141   .     S
H7979  C8076   1.102   .     S
C7980  C8031   1.389   .     S
C7980  C8282   1.412   .     S
C7981  C8031   1.376   .     S
C7981  O8001   1.405   .     S
C7981  C8043   1.405   .     S
C7982  C8056   1.525   .     S
C7982  C7984   1.530   .     S
C7983  H8059   1.058   .     S
C7983  H8069   1.099   .     S
C7983  H8026   1.085   .     S
C7983  C7992   1.529   .     S
C7984  H8073   1.079   .     S
C7984  H8107   1.080   .     S
C7985  C8003   1.442   .     S
C7985  H7994   1.148   .     S
C7986  N8104   1.190   .     S
C7986  C8038   1.375   .     S
C7987  C8039   1.361   .     S
C7987  C8065   1.367   .     S
H7989  C8032   1.108   .     S
H7991  C8076   1.127   .     S
C7992  C8016   1.539   .     S
C7992  C7993   1.515   .     S
C7992  C8040   1.524   .     S
C7993  H8090   1.122   .     S
C7993  C8095   1.574   .     S
C7995  C8067   1.445   .     S
C7995  C8011   1.376   .     S
C7997  C8050   1.543   .     S
C7997  C6007   1.394   1_565 S
C7997  C5965   1.380   1_565 S
C7998  C8008   1.364   .     S
C7999  C8021   1.347   .     S
C7999  C8039   1.458   .     S
H8000  C8052   1.148   .     S
O8001  C8051   1.414   .     S
H8002  C8040   1.088   .     S
C8003  C8051   1.404   .     S
C8003  O8070   1.372   .     S
H8004  C8046   1.088   .     S
C8005  C8045   1.440   .     S
C8005  C8075   1.363   .     S
C8005  O8053   1.400   .     S
H8006  C8028   1.067   .     S
C8007  C8038   1.403   .     S
C8007  C8023   1.413   .     S
C8007  O8012   1.387   .     S
N8009  C8065   1.146   .     S
H8010  C8040   1.153   .     S
C8011  C8066   1.384   .     S
O8012  C8067   1.383   .     S
C8013  C8067   1.403   .     S
N8015  C8054   1.203   .     S
C8016  C8088   1.401   .     S
H8017  C5965   1.151   1_565 S
C8018  C8045   1.358   .     S
C8018  H8098   1.117   .     S
O8019  C8039   1.397   .     S
C8020  O8074   1.411   .     S
C8021  C8034   1.352   .     S
C8021  C8054   1.451   .     S
C8022  C8110   1.402   .     S
C8022  C8253   1.399   .     S
C8023  C8055   1.390   .     S
H8024  C8100   1.093   .     S
H8025  C8075   1.108   .     S
H8027  C8056   1.133   .     S
C8028  H8061   1.118   .     S
C8028  C8062   1.628   .     S
C8028  H8080   1.058   .     S
C8029  F8035   1.359   .     S
H8030  C8037   1.082   .     S
C8031  O8070   1.481   .     S
C8032  C8050   1.505   .     S
C8032  C8049   1.581   .     S
C8034  O8086   1.413   .     S
O8036  C8091   1.409   .     S
C8037  C8049   1.514   .     S
C8037  H8047   1.099   .     S
C8038  C8079   1.428   .     S
C8040  H8087   1.129   .     S
N8041  C8077   1.193   .     S
C8042  C8051   1.396   .     S
C8043  C8263   1.387   .     S
C8043  C8281   1.427   .     S
C8045  O8074   1.375   .     S
C8046  C8049   1.509   .     S
C8048  H8103   1.117   .     S
C8052  H8089   1.117   .     S
C8055  C8091   1.368   .     S
C8055  C8077   1.449   .     S
C8056  C8058   1.519   .     S
C8058  C8066   1.556   .     S
C8062  C8076   1.492   .     S
C8063  N6016   1.169   1_565 S
H8064  C8068   1.103   .     S
C8068  C8092   1.549   .     S
C8072  C8095   1.467   .     S
C8072  C8100   1.405   .     S
C8072  C6101   1.400   1_565 S
H8078  C2532   1.085   1_655 S
C8079  C8091   1.388   .     S
O8081  C8084   1.361   .     S
O8081  C8110   1.401   .     S
C8084  C8157   1.415   .     S
C8084  C8088   1.428   .     S
O8086  C2543   1.355   1_655 S
F8094  C2463   1.407   1_655 S
C8095  C8140   1.512   .     S
O8096  C8101   1.395   .     S
F8097  C5904   1.398   1_565 S
H8099  C8261   1.098   .     S
C8100  C6011   1.397   1_565 S
C8101  C2530   1.370   1_655 S
C8101  C2543   1.441   1_655 S
H8105  C2478   1.086   1_655 S
H8106  C6071   1.147   1_565 S
H8109  C6265   1.104   1_565 S
C8110  C8244   1.367   .     S
C8111  C8148   1.439   .     S
C8111  H8239   1.051   .     S
C8112  C8267   1.556   .     S
C8112  C8259   1.518   .     S
C8112  C8209   1.521   .     S
C8112  C7678   1.550   1_556 S
N8113  C8118   1.143   .     S
C8114  C8242   1.530   .     S
C8114  H8188   1.169   .     S
C8114  H8183   1.057   .     S
C8114  C8227   1.530   .     S
H8115  C8232   1.108   .     S
C8116  C8176   1.413   .     S
C8116  O8197   1.394   .     S
C8116  C8142   1.397   .     S
C8117  C8147   1.515   .     S
C8117  C8159   1.497   .     S
C8117  H6268   1.073   1_565 S
C8117  H6090   1.142   1_565 S
C8118  C8127   1.393   .     S
C8119  C8190   1.382   .     S
C8119  H8249   1.104   .     S
C8119  C8154   1.364   .     S
H8120  C8210   1.093   .     S
H8121  C8128   1.101   .     S
H8122  C8143   1.088   .     S
H8123  C8233   1.107   .     S
H8124  C8233   1.048   .     S
C8125  H8166   1.089   .     S
C8125  H8212   1.073   .     S
C8125  H8245   1.137   .     S
C8125  C8177   1.512   .     S
C8126  O8132   1.419   .     S
C8126  C8128   1.371   .     S
C8126  C8135   1.395   .     S
C8127  C8228   1.395   .     S
C8127  C7648   1.336   1_556 S
C8128  C8136   1.413   .     S
C8129  H8240   1.083   .     S
C8129  H8264   1.090   .     S
C8129  C2610   1.507   1_655 S
C8129  H7641   1.129   1_556 S
C8130  H8139   1.125   .     S
C8130  C8165   1.352   .     S
C8130  C8131   1.427   .     S
C8131  C8208   1.348   .     S
C8131  O8160   1.424   .     S
O8132  C8282   1.356   .     S
C8133  H8207   1.054   .     S
C8133  C8219   1.400   .     S
C8134  O8214   1.386   .     S
C8134  C8237   1.372   .     S
C8134  C8167   1.435   .     S
C8135  C8175   1.384   .     S
C8135  O8185   1.355   .     S
C8136  C8145   1.390   .     S
C8136  C8147   1.523   .     S
C8137  C8182   1.509   .     S
C8137  C8243   1.533   .     S
H8138  C8267   1.127   .     S
C8140  H8171   1.125   .     S
C8140  C8265   1.536   .     S
C8140  H8156   1.076   .     S
H8141  C6266   1.119   1_565 S
C8142  C8182   1.416   .     S
C8142  H8172   1.091   .     S
C8143  H8193   1.117   .     S
C8143  C8159   1.515   .     S
C8143  H6165   1.074   1_565 S
C8144  C8242   1.546   .     S
C8144  C8276   1.369   .     S
C8144  C8219   1.432   .     S
C8145  C8175   1.406   .     S
C8145  C8191   1.530   .     S
C8146  C8261   1.348   .     S
C8146  C8182   1.415   .     S
C8147  C8155   1.510   .     S
C8147  C8232   1.574   .     S
C8148  O8269   1.408   .     S
C8148  C8221   1.393   .     S
H8149  C8243   1.056   .     S
H8150  C8204   1.104   .     S
C8151  C8221   1.408   .     S
C8151  C8202   1.406   .     S
C8151  H8279   1.113   .     S
H8152  C8204   1.112   .     S
H8153  C6102   1.069   1_565 S
C8154  C8163   1.394   .     S
C8154  O8229   1.389   .     S
C8155  C8165   1.395   .     S
C8155  C8231   1.355   .     S
C8157  C8158   1.452   .     S
C8157  O8192   1.371   .     S
C8158  H8226   1.134   .     S
C8159  C8165   1.582   .     S
C8159  C6222   1.543   1_565 S
O8160  C8167   1.406   .     S
C8161  C8201   1.424   .     S
C8161  N8187   1.163   .     S
N8162  C8223   1.145   .     S
C8163  C8205   1.372   .     S
C8163  O8266   1.368   .     S
H8164  C8231   1.090   .     S
C8167  C8218   1.457   .     S
H8168  C8230   1.081   .     S
H8169  C8209   1.145   .     S
H8170  C8211   1.061   .     S
H8173  C8175   1.059   .     S
C8174  C8224   1.409   .     S
C8174  C8237   1.420   .     S
C8174  O8198   1.373   .     S
C8176  O8275   1.368   .     S
C8176  C8261   1.435   .     S
C8177  C8196   1.570   .     S
C8177  C7752   1.574   1_556 S
C8177  C7719   1.572   1_556 S
H8178  C8267   1.122   .     S
H8179  C8200   1.111   .     S
C8180  C8201   1.307   .     S
C8180  C8253   1.424   .     S
C8180  O8197   1.429   .     S
C8181  C8237   1.477   .     S
C8181  N8220   1.141   .     S
O8184  C2692   1.365   1_655 S
O8184  C6238   1.386   1_565 S
O8185  C8263   1.392   .     S
H8186  C8232   1.087   .     S
H8189  C8211   1.156   .     S
C8190  C8256   1.425   .     S
C8190  C8242   1.539   .     S
C8191  C8211   1.515   .     S
C8191  C8232   1.546   .     S
C8191  C8200   1.530   .     S
O8192  C8244   1.450   .     S
H8194  C8233   1.093   .     S
H8195  C6257   1.148   1_565 S
C8196  C8271   1.568   .     S
C8196  H8222   1.119   .     S
C8196  H8199   1.094   .     S
O8198  C8221   1.352   .     S
C8200  H8213   1.105   .     S
C8200  H8246   1.077   .     S
C8201  C8244   1.381   .     S
C8203  C8230   1.521   .     S
C8203  C8210   1.537   .     S
C8203  C8219   1.513   .     S
C8203  C8233   1.532   .     S
C8204  H8254   1.175   .     S
C8204  C8227   1.464   .     S
C8205  H8234   1.089   .     S
C8205  C8256   1.421   .     S
H8206  C8252   1.071   .     S
C8208  C8231   1.395   .     S
C8208  O8214   1.367   .     S
C8209  H8216   1.101   .     S
C8209  H8260   1.117   .     S
C8210  H8235   1.090   .     S
C8210  H8236   1.127   .     S
C8211  H8268   1.132   .     S
H8215  C8259   1.049   .     S
H8217  C8252   1.110   .     S
C8218  C8225   1.415   .     S
C8218  C8224   1.377   .     S
C8224  O8269   1.453   .     S
C8225  N8272   1.146   .     S
C8227  C8256   1.507   .     S
C8227  C8252   1.491   .     S
C8228  O8229   1.440   .     S
C8228  C8274   1.423   .     S
C8230  H8241   1.135   .     S
C8230  C8242   1.532   .     S
N8238  C8281   1.126   .     S
C8243  H8250   1.071   .     S
H8247  C8276   1.100   .     S
C8248  C8273   1.369   .     S
C8248  C8271   1.567   .     S
C8248  C7752   1.415   1_556 S
H8251  C8252   1.098   .     S
C8253  O8275   1.326   .     S
H8255  C8267   1.092   .     S
H8257  C8259   1.077   .     S
H8258  C6265   1.066   1_565 S
C8259  C8271   1.543   .     S
C8263  C8282   1.391   .     S
C8265  C6102   1.534   1_565 S
C8265  C6101   1.512   1_565 S
C8265  C6265   1.483   1_565 S
O8266  C8274   1.379   .     S
H8270  C2690   1.070   1_655 S
C8271  C7682   1.497   1_556 S
C8273  H8280   1.073   .     S
C8273  C6259   1.383   1_565 S
C8274  C7655   1.401   1_556 S
H8277  C7022   1.168   1_556 S
H8278  C7624   1.116   1_556 S
